1
    SWAT Jun 01 2011    VER 2009/Rev. 481                                                                0/ 0/   0      0: 0: 0

    General Input/Output section (file.cio):                                        
    2013-7-14 00:00:00 ARCGIS-SWAT interface AV                                     
                                                                                    


       SUB      GIS  MON   AREAkm2  PRECIPmm SNOMELTmm     PETmm      ETmm      SWmm    PERCmm    SURQmm    GW_Qmm    WYLDmm  SYLDt/ha ORGNkg/ha ORGPkg/haNSURQkg/ha SOLPkg/ha SEDPkg/ha LAT Q(mm)LATNO3kg/hGWNO3kg/haCHOLAkg/haCBODUkg/ha DOXQkg/ha
BIGSUB   1        0    1.76460E+02 0.000E+00 0.000E+00 0.611E+00 0.168E+00 0.169E+03 0.000E+00 0.127E-03 0.000E+00 0.198E+00 0.716E-07 0.594E-06 0.742E-07 0.468E-06 0.367E-07 0.692E-08 0.198E+00 0.272E-02 0.100E-11 .00000E+00 0.000E+00 0.000E+00
BIGSUB   2        0    1.85095E+02 0.000E+00 0.000E+00 0.610E+00 0.186E+00 0.158E+03 0.000E+00 0.484E-05 0.000E+00 0.168E+00 0.362E-09 0.750E-09 0.747E-09 0.430E-07 0.162E-08 0.149E-08 0.168E+00 0.252E-02 0.100E-11 .00000E+00 0.000E+00 0.000E+00
BIGSUB   3        0    1.34257E+02 0.000E+00 0.000E+00 0.603E+00 0.217E+00 0.217E+03 0.000E+00 0.462E-02 0.000E+00 0.165E+00 0.154E-05 0.204E-04 0.325E-05 0.859E-04 0.134E-05 0.693E-07 0.161E+00 0.252E-02 0.100E-11 .00000E+00 0.000E+00 0.000E+00
BIGSUB   4        0    1.36293E+02 0.000E+00 0.000E+00 0.604E+00 0.209E+00 0.284E+03 0.000E+00 0.207E-02 0.000E+00 0.218E+00 0.622E-06 0.104E-04 0.165E-05 0.376E-04 0.664E-06 0.814E-08 0.216E+00 0.285E-02 0.100E-11 .00000E+00 0.000E+00 0.000E+00
BIGSUB   5        0    1.58984E+02 0.000E+00 0.000E+00 0.601E+00 0.170E+00 0.196E+03 0.000E+00 0.251E-04 0.000E+00 0.179E+00 0.500E-12 0.612E-09 0.612E-09 0.980E-07 0.694E-08 0.122E-08 0.179E+00 0.196E-02 0.100E-11 .00000E+00 0.000E+00 0.000E+00
BIGSUB   1        0    2.76460E+02 0.000E+00 0.000E+00 0.815E+00 0.237E+00 0.168E+03 0.000E+00 0.595E-04 0.000E+00 0.177E+00 0.334E-07 0.290E-06 0.363E-07 0.216E-06 0.174E-07 0.355E-08 0.176E+00 0.243E-02 0.100E-11 .00000E+00 0.000E+00 0.000E+00
BIGSUB   2        0    2.85095E+02 0.000E+00 0.000E+00 0.814E+00 0.263E+00 0.158E+03 0.000E+00 0.190E-05 0.000E+00 0.149E+00 0.917E-10 0.747E-09 0.747E-09 0.150E-07 0.854E-09 0.149E-08 0.149E+00 0.220E-02 0.100E-11 .00000E+00 0.000E+00 0.000E+00
BIGSUB   3        0    2.34257E+02 0.000E+00 0.000E+00 0.806E+00 0.301E+00 0.217E+03 0.000E+00 0.377E-02 0.000E+00 0.139E+00 0.125E-05 0.166E-04 0.264E-05 0.700E-04 0.109E-05 0.567E-07 0.136E+00 0.213E-02 0.100E-11 .00000E+00 0.000E+00 0.000E+00
BIGSUB   4        0    2.36293E+02 0.000E+00 0.000E+00 0.808E+00 0.286E+00 0.284E+03 0.000E+00 0.175E-02 0.000E+00 0.191E+00 0.527E-06 0.878E-05 0.140E-05 0.318E-04 0.563E-06 0.716E-08 0.189E+00 0.247E-02 0.100E-11 .00000E+00 0.000E+00 0.000E+00
BIGSUB   5        0    2.58984E+02 0.000E+00 0.000E+00 0.804E+00 0.243E+00 0.196E+03 0.000E+00 0.132E-04 0.000E+00 0.148E+00 0.500E-12 0.612E-09 0.612E-09 0.512E-07 0.377E-08 0.122E-08 0.148E+00 0.161E-02 0.100E-11 .00000E+00 0.000E+00 0.000E+00
BIGSUB   1        0    3.76460E+02 0.000E+00 0.000E+00 0.894E+00 0.259E+00 0.168E+03 0.000E+00 0.283E-04 0.000E+00 0.159E+00 0.160E-07 0.142E-06 0.179E-07 0.103E-06 0.836E-08 0.206E-08 0.159E+00 0.219E-02 0.100E-11 .00000E+00 0.000E+00 0.000E+00
BIGSUB   2        0    3.85095E+02 0.000E+00 0.000E+00 0.893E+00 0.289E+00 0.157E+03 0.000E+00 0.951E-06 0.000E+00 0.133E+00 0.236E-10 0.747E-09 0.747E-09 0.541E-08 0.747E-09 0.149E-08 0.133E+00 0.194E-02 0.100E-11 .00000E+00 0.000E+00 0.000E+00
BIGSUB   3        0    3.34257E+02 0.000E+00 0.000E+00 0.885E+00 0.328E+00 0.216E+03 0.000E+00 0.307E-02 0.000E+00 0.118E+00 0.102E-05 0.135E-04 0.216E-05 0.571E-04 0.888E-06 0.465E-07 0.115E+00 0.181E-02 0.100E-11 .00000E+00 0.000E+00 0.000E+00
BIGSUB   4        0    3.36293E+02 0.000E+00 0.000E+00 0.887E+00 0.312E+00 0.284E+03 0.000E+00 0.148E-02 0.000E+00 0.168E+00 0.446E-06 0.744E-05 0.118E-05 0.269E-04 0.477E-06 0.633E-08 0.166E+00 0.215E-02 0.100E-11 .00000E+00 0.000E+00 0.000E+00
BIGSUB   5        0    3.58984E+02 0.000E+00 0.000E+00 0.883E+00 0.269E+00 0.195E+03 0.000E+00 0.704E-05 0.000E+00 0.123E+00 0.500E-12 0.612E-09 0.612E-09 0.268E-07 0.212E-08 0.122E-08 0.123E+00 0.132E-02 0.100E-11 .00000E+00 0.000E+00 0.000E+00
BIGSUB   1        0    4.76460E+02 0.000E+00 0.000E+00 0.106E+01 0.308E+00 0.168E+03 0.000E+00 0.136E-04 0.000E+00 0.143E+00 0.767E-08 0.700E-07 0.900E-08 0.492E-07 0.407E-08 0.145E-08 0.143E+00 0.199E-02 0.100E-11 .00000E+00 0.000E+00 0.000E+00
BIGSUB   2        0    4.85095E+02 0.000E+00 0.000E+00 0.106E+01 0.341E+00 0.157E+03 0.000E+00 0.743E-06 0.000E+00 0.119E+00 0.641E-11 0.747E-09 0.747E-09 0.219E-08 0.747E-09 0.149E-08 0.119E+00 0.172E-02 0.100E-11 .00000E+00 0.000E+00 0.000E+00
BIGSUB   3        0    4.34257E+02 0.000E+00 0.000E+00 0.105E+01 0.383E+00 0.216E+03 0.000E+00 0.250E-02 0.000E+00 0.101E+00 0.832E-06 0.110E-04 0.176E-05 0.465E-04 0.724E-06 0.382E-07 0.981E-01 0.154E-02 0.100E-11 .00000E+00 0.000E+00 0.000E+00
BIGSUB   4        0    4.36293E+02 0.000E+00 0.000E+00 0.106E+01 0.362E+00 0.283E+03 0.000E+00 0.126E-02 0.000E+00 0.148E+00 0.378E-06 0.630E-05 0.100E-05 0.228E-04 0.404E-06 0.563E-08 0.147E+00 0.187E-02 0.100E-11 .00000E+00 0.000E+00 0.000E+00
BIGSUB   5        0    4.58984E+02 0.000E+00 0.000E+00 0.105E+01 0.318E+00 0.195E+03 0.000E+00 0.382E-05 0.000E+00 0.102E+00 0.500E-12 0.612E-09 0.612E-09 0.141E-07 0.126E-08 0.122E-08 0.102E+00 0.109E-02 0.100E-11 .00000E+00 0.000E+00 0.000E+00
BIGSUB   1        0    5.76460E+02 0.000E+00 0.000E+00 0.934E+00 0.269E+00 0.168E+03 0.000E+00 0.660E-05 0.000E+00 0.130E+00 0.371E-08 0.345E-07 0.460E-08 0.237E-07 0.212E-08 0.121E-08 0.130E+00 0.182E-02 0.100E-11 .00000E+00 0.000E+00 0.000E+00
BIGSUB   2        0    5.85095E+02 0.000E+00 0.000E+00 0.933E+00 0.296E+00 0.157E+03 0.000E+00 0.743E-06 0.000E+00 0.107E+00 0.209E-11 0.747E-09 0.747E-09 0.105E-08 0.747E-09 0.149E-08 0.107E+00 0.154E-02 0.100E-11 .00000E+00 0.000E+00 0.000E+00
BIGSUB   3        0    5.34257E+02 0.000E+00 0.000E+00 0.925E+00 0.329E+00 0.215E+03 0.000E+00 0.204E-02 0.000E+00 0.860E-01 0.678E-06 0.899E-05 0.143E-05 0.379E-04 0.590E-06 0.315E-07 0.840E-01 0.132E-02 0.100E-11 .00000E+00 0.000E+00 0.000E+00
BIGSUB   4        0    5.36293E+02 0.000E+00 0.000E+00 0.926E+00 0.308E+00 0.283E+03 0.000E+00 0.106E-02 0.000E+00 0.131E+00 0.320E-06 0.534E-05 0.848E-06 0.193E-04 0.342E-06 0.504E-08 0.130E+00 0.164E-02 0.100E-11 .00000E+00 0.000E+00 0.000E+00
BIGSUB   5        0    5.58984E+02 0.000E+00 0.000E+00 0.922E+00 0.276E+00 0.195E+03 0.000E+00 0.215E-05 0.000E+00 0.855E-01 0.500E-12 0.612E-09 0.612E-09 0.751E-08 0.812E-09 0.122E-08 0.855E-01 0.896E-03 0.100E-11 .00000E+00 0.000E+00 0.000E+00
BIGSUB   1        0    6.76460E+02 0.000E+00 0.000E+00 0.769E+00 0.220E+00 0.167E+03 0.000E+00 0.329E-05 0.000E+00 0.119E+00 0.180E-08 0.172E-07 0.243E-08 0.115E-07 0.121E-08 0.121E-08 0.119E+00 0.167E-02 0.100E-11 .00000E+00 0.000E+00 0.000E+00
BIGSUB   2        0    6.85095E+02 0.000E+00 0.000E+00 0.768E+00 0.241E+00 0.157E+03 0.000E+00 0.743E-06 0.000E+00 0.974E-01 0.100E-11 0.747E-09 0.747E-09 0.747E-09 0.747E-09 0.149E-08 0.974E-01 0.139E-02 0.100E-11 .00000E+00 0.000E+00 0.000E+00
BIGSUB   3        0    6.34257E+02 0.000E+00 0.000E+00 0.760E+00 0.266E+00 0.215E+03 0.000E+00 0.166E-02 0.000E+00 0.739E-01 0.553E-06 0.733E-05 0.117E-05 0.309E-04 0.481E-06 0.260E-07 0.723E-01 0.113E-02 0.100E-11 .00000E+00 0.000E+00 0.000E+00
BIGSUB   4        0    6.36293E+02 0.000E+00 0.000E+00 0.761E+00 0.248E+00 0.283E+03 0.000E+00 0.900E-03 0.000E+00 0.116E+00 0.271E-06 0.452E-05 0.719E-06 0.164E-04 0.290E-06 0.454E-08 0.115E+00 0.144E-02 0.100E-11 .00000E+00 0.000E+00 0.000E+00
BIGSUB   5        0    6.58984E+02 0.000E+00 0.000E+00 0.758E+00 0.225E+00 0.194E+03 0.000E+00 0.127E-05 0.000E+00 0.717E-01 0.500E-12 0.612E-09 0.612E-09 0.407E-08 0.612E-09 0.122E-08 0.717E-01 0.741E-03 0.100E-11 .00000E+00 0.000E+00 0.000E+00
BIGSUB   1        0    7.76460E+02 0.000E+00 0.000E+00 0.116E+01 0.332E+00 0.167E+03 0.000E+00 0.179E-05 0.000E+00 0.110E+00 0.876E-09 0.861E-08 0.137E-08 0.567E-08 0.767E-09 0.121E-08 0.110E+00 0.154E-02 0.100E-11 .00000E+00 0.000E+00 0.000E+00
BIGSUB   2        0    7.85095E+02 0.000E+00 0.000E+00 0.116E+01 0.364E+00 0.156E+03 0.000E+00 0.743E-06 0.000E+00 0.891E-01 0.729E-12 0.747E-09 0.747E-09 0.747E-09 0.747E-09 0.149E-08 0.891E-01 0.126E-02 0.100E-11 .00000E+00 0.000E+00 0.000E+00
BIGSUB   3        0    7.34257E+02 0.000E+00 0.000E+00 0.115E+01 0.401E+00 0.215E+03 0.000E+00 0.136E-02 0.000E+00 0.639E-01 0.451E-06 0.598E-05 0.952E-06 0.252E-04 0.393E-06 0.215E-07 0.625E-01 0.978E-03 0.100E-11 .00000E+00 0.000E+00 0.000E+00
BIGSUB   4        0    7.36293E+02 0.000E+00 0.000E+00 0.115E+01 0.374E+00 0.282E+03 0.000E+00 0.763E-03 0.000E+00 0.103E+00 0.229E-06 0.383E-05 0.609E-06 0.139E-04 0.246E-06 0.411E-08 0.103E+00 0.126E-02 0.100E-11 .00000E+00 0.000E+00 0.000E+00
BIGSUB   5        0    7.58984E+02 0.000E+00 0.000E+00 0.115E+01 0.344E+00 0.194E+03 0.000E+00 0.818E-06 0.000E+00 0.605E-01 0.500E-12 0.612E-09 0.612E-09 0.228E-08 0.612E-09 0.122E-08 0.605E-01 0.613E-03 0.100E-11 .00000E+00 0.000E+00 0.000E+00
BIGSUB   1        0    8.76460E+02 0.000E+00 0.000E+00 0.138E+01 0.395E+00 0.167E+03 0.000E+00 0.105E-05 0.000E+00 0.102E+00 0.428E-09 0.441E-08 0.841E-09 0.295E-08 0.606E-09 0.121E-08 0.102E+00 0.143E-02 0.100E-11 .00000E+00 0.000E+00 0.000E+00
BIGSUB   2        0    8.85095E+02 0.000E+00 0.000E+00 0.138E+01 0.432E+00 0.156E+03 0.000E+00 0.743E-06 0.000E+00 0.819E-01 0.725E-12 0.747E-09 0.747E-09 0.747E-09 0.747E-09 0.149E-08 0.819E-01 0.115E-02 0.100E-11 .00000E+00 0.000E+00 0.000E+00
BIGSUB   3        0    8.34257E+02 0.000E+00 0.000E+00 0.137E+01 0.475E+00 0.214E+03 0.000E+00 0.111E-02 0.000E+00 0.555E-01 0.368E-06 0.487E-05 0.776E-06 0.205E-04 0.320E-06 0.178E-07 0.544E-01 0.849E-03 0.100E-11 .00000E+00 0.000E+00 0.000E+00
BIGSUB   4        0    8.36293E+02 0.000E+00 0.000E+00 0.137E+01 0.444E+00 0.282E+03 0.000E+00 0.646E-03 0.000E+00 0.923E-01 0.194E-06 0.324E-05 0.516E-06 0.117E-04 0.208E-06 0.375E-08 0.917E-01 0.112E-02 0.100E-11 .00000E+00 0.000E+00 0.000E+00
BIGSUB   5        0    8.58984E+02 0.000E+00 0.000E+00 0.137E+01 0.413E+00 0.194E+03 0.000E+00 0.609E-06 0.000E+00 0.512E-01 0.500E-12 0.612E-09 0.612E-09 0.134E-08 0.612E-09 0.122E-08 0.512E-01 0.509E-03 0.100E-11 .00000E+00 0.000E+00 0.000E+00
BIGSUB   1        0    9.76460E+02 0.000E+00 0.000E+00 0.860E+00 0.244E+00 0.166E+03 0.000E+00 0.684E-06 0.000E+00 0.946E-01 0.209E-09 0.234E-08 0.606E-09 0.162E-08 0.606E-09 0.121E-08 0.946E-01 0.134E-02 0.100E-11 .00000E+00 0.000E+00 0.000E+00
BIGSUB   2        0    9.85095E+02 0.000E+00 0.000E+00 0.859E+00 0.266E+00 0.155E+03 0.000E+00 0.743E-06 0.000E+00 0.757E-01 0.725E-12 0.747E-09 0.747E-09 0.747E-09 0.747E-09 0.149E-08 0.757E-01 0.105E-02 0.100E-11 .00000E+00 0.000E+00 0.000E+00
BIGSUB   3        0    9.34257E+02 0.000E+00 0.000E+00 0.851E+00 0.290E+00 0.214E+03 0.000E+00 0.901E-03 0.000E+00 0.485E-01 0.300E-06 0.397E-05 0.633E-06 0.167E-04 0.261E-06 0.148E-07 0.476E-01 0.741E-03 0.100E-11 .00000E+00 0.000E+00 0.000E+00
BIGSUB   4        0    9.36293E+02 0.000E+00 0.000E+00 0.852E+00 0.268E+00 0.282E+03 0.000E+00 0.547E-03 0.000E+00 0.828E-01 0.165E-06 0.275E-05 0.437E-06 0.994E-05 0.176E-06 0.345E-08 0.823E-01 0.988E-03 0.100E-11 .00000E+00 0.000E+00 0.000E+00
BIGSUB   5        0    9.58984E+02 0.000E+00 0.000E+00 0.849E+00 0.254E+00 0.193E+03 0.000E+00 0.609E-06 0.000E+00 0.436E-01 0.500E-12 0.612E-09 0.612E-09 0.855E-09 0.612E-09 0.122E-08 0.436E-01 0.424E-03 0.100E-11 .00000E+00 0.000E+00 0.000E+00
BIGSUB   1        0   10.76460E+02 0.000E+00 0.000E+00 0.118E+01 0.336E+00 0.166E+03 0.000E+00 0.603E-06 0.000E+00 0.883E-01 0.103E-09 0.132E-08 0.606E-09 0.967E-09 0.606E-09 0.121E-08 0.883E-01 0.125E-02 0.100E-11 .00000E+00 0.000E+00 0.000E+00
BIGSUB   2        0   10.85095E+02 0.201E+00 0.000E+00 0.432E+00 0.173E+00 0.155E+03 0.000E+00 0.743E-06 0.000E+00 0.703E-01 0.725E-12 0.747E-09 0.747E-09 0.747E-09 0.747E-09 0.149E-08 0.703E-01 0.971E-03 0.100E-11 .00000E+00 0.000E+00 0.000E+00
BIGSUB   3        0   10.34257E+02 0.100E+00 0.000E+00 0.429E+00 0.185E+00 0.214E+03 0.000E+00 0.943E-04 0.000E+00 0.420E-01 0.244E-06 0.324E-05 0.516E-06 0.136E-04 0.213E-06 0.124E-07 0.419E-01 0.650E-03 0.100E-11 .00000E+00 0.000E+00 0.000E+00
BIGSUB   4        0   10.36293E+02 0.100E+00 0.000E+00 0.429E+00 0.187E+00 0.281E+03 0.000E+00 0.131E-03 0.000E+00 0.743E-01 0.139E-06 0.232E-05 0.370E-06 0.842E-05 0.150E-06 0.319E-08 0.741E-01 0.878E-03 0.100E-11 .00000E+00 0.000E+00 0.000E+00
BIGSUB   5        0   10.58984E+02 0.100E+00 0.000E+00 0.428E+00 0.179E+00 0.193E+03 0.000E+00 0.609E-06 0.000E+00 0.373E-01 0.500E-12 0.612E-09 0.612E-09 0.612E-09 0.612E-09 0.122E-08 0.373E-01 0.355E-03 0.100E-11 .00000E+00 0.000E+00 0.000E+00
BIGSUB   1        0   11.76460E+02 0.000E+00 0.000E+00 0.141E+01 0.400E+00 0.166E+03 0.000E+00 0.603E-06 0.000E+00 0.828E-01 0.506E-10 0.819E-09 0.606E-09 0.645E-09 0.606E-09 0.121E-08 0.828E-01 0.117E-02 0.100E-11 .00000E+00 0.000E+00 0.000E+00
BIGSUB   2        0   11.85095E+02 0.000E+00 0.000E+00 0.141E+01 0.438E+00 0.155E+03 0.000E+00 0.743E-06 0.000E+00 0.655E-01 0.725E-12 0.747E-09 0.747E-09 0.747E-09 0.747E-09 0.149E-08 0.655E-01 0.900E-03 0.100E-11 .00000E+00 0.000E+00 0.000E+00
BIGSUB   3        0   11.34257E+02 0.000E+00 0.000E+00 0.140E+01 0.477E+00 0.213E+03 0.000E+00 0.599E-03 0.000E+00 0.377E-01 0.199E-06 0.264E-05 0.421E-06 0.111E-04 0.174E-06 0.104E-07 0.371E-01 0.573E-03 0.100E-11 .00000E+00 0.000E+00 0.000E+00
BIGSUB   4        0   11.36293E+02 0.000E+00 0.000E+00 0.140E+01 0.441E+00 0.281E+03 0.000E+00 0.393E-03 0.000E+00 0.674E-01 0.118E-06 0.197E-05 0.314E-06 0.713E-05 0.127E-06 0.297E-08 0.671E-01 0.783E-03 0.100E-11 .00000E+00 0.000E+00 0.000E+00
BIGSUB   5        0   11.58984E+02 0.000E+00 0.000E+00 0.140E+01 0.423E+00 0.193E+03 0.000E+00 0.609E-06 0.000E+00 0.321E-01 0.500E-12 0.612E-09 0.612E-09 0.612E-09 0.612E-09 0.122E-08 0.321E-01 0.298E-03 0.100E-11 .00000E+00 0.000E+00 0.000E+00
BIGSUB   1        0   12.76460E+02 0.000E+00 0.000E+00 0.106E+01 0.301E+00 0.165E+03 0.000E+00 0.603E-06 0.000E+00 0.778E-01 0.251E-10 0.606E-09 0.606E-09 0.606E-09 0.606E-09 0.121E-08 0.778E-01 0.111E-02 0.100E-11 .00000E+00 0.000E+00 0.000E+00
BIGSUB   2        0   12.85095E+02 0.000E+00 0.000E+00 0.106E+01 0.328E+00 0.155E+03 0.000E+00 0.743E-06 0.000E+00 0.613E-01 0.725E-12 0.747E-09 0.747E-09 0.747E-09 0.747E-09 0.149E-08 0.613E-01 0.838E-03 0.100E-11 .00000E+00 0.000E+00 0.000E+00
BIGSUB   3        0   12.34257E+02 0.000E+00 0.000E+00 0.105E+01 0.355E+00 0.213E+03 0.000E+00 0.489E-03 0.000E+00 0.335E-01 0.162E-06 0.215E-05 0.343E-06 0.907E-05 0.142E-06 0.879E-08 0.330E-01 0.508E-03 0.100E-11 .00000E+00 0.000E+00 0.000E+00
BIGSUB   4        0   12.36293E+02 0.000E+00 0.000E+00 0.106E+01 0.327E+00 0.281E+03 0.000E+00 0.333E-03 0.000E+00 0.612E-01 0.999E-07 0.167E-05 0.266E-06 0.604E-05 0.108E-06 0.278E-08 0.609E-01 0.701E-03 0.100E-11 .00000E+00 0.000E+00 0.000E+00
BIGSUB   5        0   12.58984E+02 0.000E+00 0.000E+00 0.105E+01 0.317E+00 0.193E+03 0.000E+00 0.609E-06 0.000E+00 0.278E-01 0.500E-12 0.612E-09 0.612E-09 0.612E-09 0.612E-09 0.122E-08 0.278E-01 0.251E-03 0.100E-11 .00000E+00 0.000E+00 0.000E+00
BIGSUB   1        0   13.76460E+02 0.000E+00 0.000E+00 0.122E+01 0.343E+00 0.165E+03 0.000E+00 0.603E-06 0.000E+00 0.733E-01 0.126E-10 0.606E-09 0.606E-09 0.606E-09 0.606E-09 0.121E-08 0.733E-01 0.104E-02 0.100E-11 .00000E+00 0.000E+00 0.000E+00
BIGSUB   2        0   13.85095E+02 0.000E+00 0.000E+00 0.122E+01 0.372E+00 0.154E+03 0.000E+00 0.743E-06 0.000E+00 0.576E-01 0.725E-12 0.747E-09 0.747E-09 0.747E-09 0.747E-09 0.149E-08 0.576E-01 0.784E-03 0.100E-11 .00000E+00 0.000E+00 0.000E+00
BIGSUB   3        0   13.34257E+02 0.000E+00 0.000E+00 0.121E+01 0.398E+00 0.213E+03 0.000E+00 0.398E-03 0.000E+00 0.300E-01 0.132E-06 0.175E-05 0.280E-06 0.739E-05 0.116E-06 0.747E-08 0.296E-01 0.453E-03 0.100E-11 .00000E+00 0.000E+00 0.000E+00
BIGSUB   4        0   13.36293E+02 0.000E+00 0.000E+00 0.121E+01 0.361E+00 0.280E+03 0.000E+00 0.282E-03 0.000E+00 0.558E-01 0.846E-07 0.141E-05 0.225E-06 0.511E-05 0.912E-07 0.263E-08 0.555E-01 0.630E-03 0.100E-11 .00000E+00 0.000E+00 0.000E+00
BIGSUB   5        0   13.58984E+02 0.000E+00 0.000E+00 0.120E+01 0.355E+00 0.192E+03 0.000E+00 0.609E-06 0.000E+00 0.242E-01 0.500E-12 0.612E-09 0.612E-09 0.612E-09 0.612E-09 0.122E-08 0.242E-01 0.212E-03 0.100E-11 .00000E+00 0.000E+00 0.000E+00
BIGSUB   1        0   14.76460E+02 0.000E+00 0.000E+00 0.877E+00 0.247E+00 0.165E+03 0.000E+00 0.603E-06 0.000E+00 0.693E-01 0.648E-11 0.606E-09 0.606E-09 0.606E-09 0.606E-09 0.121E-08 0.693E-01 0.987E-03 0.100E-11 .00000E+00 0.000E+00 0.000E+00
BIGSUB   2        0   14.85095E+02 0.000E+00 0.000E+00 0.877E+00 0.266E+00 0.154E+03 0.000E+00 0.743E-06 0.000E+00 0.543E-01 0.725E-12 0.747E-09 0.747E-09 0.747E-09 0.747E-09 0.149E-08 0.543E-01 0.735E-03 0.100E-11 .00000E+00 0.000E+00 0.000E+00
BIGSUB   3        0   14.34257E+02 0.000E+00 0.000E+00 0.868E+00 0.283E+00 0.212E+03 0.000E+00 0.325E-03 0.000E+00 0.270E-01 0.108E-06 0.143E-05 0.228E-06 0.603E-05 0.945E-07 0.640E-08 0.266E-01 0.406E-03 0.100E-11 .00000E+00 0.000E+00 0.000E+00
BIGSUB   4        0   14.36293E+02 0.000E+00 0.000E+00 0.870E+00 0.255E+00 0.280E+03 0.000E+00 0.239E-03 0.000E+00 0.510E-01 0.717E-07 0.120E-05 0.191E-06 0.433E-05 0.774E-07 0.249E-08 0.508E-01 0.569E-03 0.100E-11 .00000E+00 0.000E+00 0.000E+00
BIGSUB   5        0   14.58984E+02 0.000E+00 0.000E+00 0.865E+00 0.254E+00 0.192E+03 0.000E+00 0.609E-06 0.000E+00 0.212E-01 0.500E-12 0.612E-09 0.612E-09 0.612E-09 0.612E-09 0.122E-08 0.212E-01 0.180E-03 0.100E-11 .00000E+00 0.000E+00 0.000E+00
BIGSUB   1        0   15.76460E+02 0.000E+00 0.000E+00 0.111E+01 0.314E+00 0.164E+03 0.000E+00 0.603E-06 0.000E+00 0.656E-01 0.348E-11 0.606E-09 0.606E-09 0.606E-09 0.606E-09 0.121E-08 0.656E-01 0.936E-03 0.100E-11 .00000E+00 0.000E+00 0.000E+00
BIGSUB   2        0   15.85095E+02 0.000E+00 0.000E+00 0.111E+01 0.337E+00 0.154E+03 0.000E+00 0.743E-06 0.000E+00 0.513E-01 0.725E-12 0.747E-09 0.747E-09 0.747E-09 0.747E-09 0.149E-08 0.513E-01 0.692E-03 0.100E-11 .00000E+00 0.000E+00 0.000E+00
BIGSUB   3        0   15.34257E+02 0.000E+00 0.000E+00 0.110E+01 0.357E+00 0.212E+03 0.000E+00 0.265E-03 0.000E+00 0.244E-01 0.879E-07 0.117E-05 0.186E-06 0.491E-05 0.772E-07 0.552E-08 0.241E-01 0.366E-03 0.100E-11 .00000E+00 0.000E+00 0.000E+00
BIGSUB   4        0   15.36293E+02 0.000E+00 0.000E+00 0.111E+01 0.322E+00 0.280E+03 0.000E+00 0.202E-03 0.000E+00 0.468E-01 0.607E-07 0.101E-05 0.162E-06 0.367E-05 0.656E-07 0.238E-08 0.466E-01 0.515E-03 0.100E-11 .00000E+00 0.000E+00 0.000E+00
BIGSUB   5        0   15.58984E+02 0.000E+00 0.000E+00 0.110E+01 0.322E+00 0.192E+03 0.000E+00 0.609E-06 0.000E+00 0.187E-01 0.500E-12 0.612E-09 0.612E-09 0.612E-09 0.612E-09 0.122E-08 0.187E-01 0.154E-03 0.100E-11 .00000E+00 0.000E+00 0.000E+00
BIGSUB   1        0   16.76460E+02 0.000E+00 0.000E+00 0.106E+01 0.299E+00 0.164E+03 0.000E+00 0.603E-06 0.000E+00 0.623E-01 0.201E-11 0.606E-09 0.606E-09 0.606E-09 0.606E-09 0.121E-08 0.623E-01 0.889E-03 0.100E-11 .00000E+00 0.000E+00 0.000E+00
BIGSUB   2        0   16.85095E+02 0.000E+00 0.000E+00 0.106E+01 0.322E+00 0.153E+03 0.000E+00 0.743E-06 0.000E+00 0.485E-01 0.725E-12 0.747E-09 0.747E-09 0.747E-09 0.747E-09 0.149E-08 0.485E-01 0.653E-03 0.100E-11 .00000E+00 0.000E+00 0.000E+00
BIGSUB   3        0   16.34257E+02 0.000E+00 0.000E+00 0.105E+01 0.341E+00 0.212E+03 0.000E+00 0.216E-03 0.000E+00 0.222E-01 0.717E-07 0.951E-06 0.152E-06 0.401E-05 0.631E-07 0.481E-08 0.219E-01 0.331E-03 0.100E-11 .00000E+00 0.000E+00 0.000E+00
BIGSUB   4        0   16.36293E+02 0.000E+00 0.000E+00 0.105E+01 0.307E+00 0.279E+03 0.000E+00 0.172E-03 0.000E+00 0.431E-01 0.514E-07 0.858E-06 0.137E-06 0.311E-05 0.557E-07 0.229E-08 0.430E-01 0.469E-03 0.100E-11 .00000E+00 0.000E+00 0.000E+00
BIGSUB   5        0   16.58984E+02 0.000E+00 0.000E+00 0.105E+01 0.310E+00 0.191E+03 0.000E+00 0.609E-06 0.000E+00 0.167E-01 0.500E-12 0.612E-09 0.612E-09 0.612E-09 0.612E-09 0.122E-08 0.167E-01 0.132E-03 0.100E-11 .00000E+00 0.000E+00 0.000E+00
BIGSUB   1        0   17.76460E+02 0.000E+00 0.000E+00 0.776E+00 0.218E+00 0.164E+03 0.000E+00 0.603E-06 0.000E+00 0.592E-01 0.128E-11 0.606E-09 0.606E-09 0.606E-09 0.606E-09 0.121E-08 0.592E-01 0.846E-03 0.100E-11 .00000E+00 0.000E+00 0.000E+00
BIGSUB   2        0   17.85095E+02 0.000E+00 0.000E+00 0.775E+00 0.234E+00 0.153E+03 0.000E+00 0.743E-06 0.000E+00 0.460E-01 0.725E-12 0.747E-09 0.747E-09 0.747E-09 0.747E-09 0.149E-08 0.460E-01 0.617E-03 0.100E-11 .00000E+00 0.000E+00 0.000E+00
BIGSUB   3        0   17.34257E+02 0.000E+00 0.000E+00 0.767E+00 0.246E+00 0.212E+03 0.000E+00 0.176E-03 0.000E+00 0.203E-01 0.584E-07 0.775E-06 0.124E-06 0.327E-05 0.516E-07 0.423E-08 0.201E-01 0.301E-03 0.100E-11 .00000E+00 0.000E+00 0.000E+00
BIGSUB   4        0   17.36293E+02 0.000E+00 0.000E+00 0.769E+00 0.221E+00 0.279E+03 0.000E+00 0.145E-03 0.000E+00 0.399E-01 0.435E-07 0.727E-06 0.116E-06 0.263E-05 0.473E-07 0.221E-08 0.397E-01 0.428E-03 0.100E-11 .00000E+00 0.000E+00 0.000E+00
BIGSUB   5        0   17.58984E+02 0.000E+00 0.000E+00 0.765E+00 0.224E+00 0.191E+03 0.000E+00 0.609E-06 0.000E+00 0.149E-01 0.500E-12 0.612E-09 0.612E-09 0.612E-09 0.612E-09 0.122E-08 0.149E-01 0.115E-03 0.100E-11 .00000E+00 0.000E+00 0.000E+00
BIGSUB   1        0   18.76460E+02 0.000E+00 0.000E+00 0.843E+00 0.238E+00 0.164E+03 0.000E+00 0.603E-06 0.000E+00 0.563E-01 0.925E-12 0.606E-09 0.606E-09 0.606E-09 0.606E-09 0.121E-08 0.563E-01 0.806E-03 0.100E-11 .00000E+00 0.000E+00 0.000E+00
BIGSUB   2        0   18.85095E+02 0.000E+00 0.000E+00 0.843E+00 0.254E+00 0.153E+03 0.000E+00 0.743E-06 0.000E+00 0.437E-01 0.725E-12 0.747E-09 0.747E-09 0.747E-09 0.747E-09 0.149E-08 0.437E-01 0.585E-03 0.100E-11 .00000E+00 0.000E+00 0.000E+00
BIGSUB   3        0   18.34257E+02 0.000E+00 0.000E+00 0.834E+00 0.267E+00 0.211E+03 0.000E+00 0.144E-03 0.000E+00 0.186E-01 0.476E-07 0.632E-06 0.101E-06 0.266E-05 0.422E-07 0.375E-08 0.185E-01 0.274E-03 0.100E-11 .00000E+00 0.000E+00 0.000E+00
BIGSUB   4        0   18.36293E+02 0.000E+00 0.000E+00 0.836E+00 0.239E+00 0.279E+03 0.000E+00 0.123E-03 0.000E+00 0.370E-01 0.369E-07 0.616E-06 0.986E-07 0.223E-05 0.402E-07 0.214E-08 0.368E-01 0.392E-03 0.100E-11 .00000E+00 0.000E+00 0.000E+00
BIGSUB   5        0   18.58984E+02 0.000E+00 0.000E+00 0.831E+00 0.244E+00 0.191E+03 0.000E+00 0.609E-06 0.000E+00 0.134E-01 0.500E-12 0.612E-09 0.612E-09 0.612E-09 0.612E-09 0.122E-08 0.134E-01 0.996E-04 0.100E-11 .00000E+00 0.000E+00 0.000E+00
BIGSUB   1        0   19.76460E+02 0.000E+00 0.000E+00 0.134E+01 0.378E+00 0.163E+03 0.000E+00 0.603E-06 0.000E+00 0.537E-01 0.749E-12 0.606E-09 0.606E-09 0.606E-09 0.606E-09 0.121E-08 0.537E-01 0.768E-03 0.100E-11 .00000E+00 0.000E+00 0.000E+00
BIGSUB   2        0   19.85095E+02 0.000E+00 0.000E+00 0.134E+01 0.406E+00 0.153E+03 0.000E+00 0.743E-06 0.000E+00 0.416E-01 0.725E-12 0.747E-09 0.747E-09 0.747E-09 0.747E-09 0.149E-08 0.416E-01 0.556E-03 0.100E-11 .00000E+00 0.000E+00 0.000E+00
BIGSUB   3        0   19.34257E+02 0.000E+00 0.000E+00 0.133E+01 0.428E+00 0.211E+03 0.000E+00 0.117E-03 0.000E+00 0.172E-01 0.388E-07 0.515E-06 0.827E-07 0.217E-05 0.346E-07 0.337E-08 0.170E-01 0.252E-03 0.100E-11 .00000E+00 0.000E+00 0.000E+00
BIGSUB   4        0   19.36293E+02 0.000E+00 0.000E+00 0.133E+01 0.386E+00 0.279E+03 0.000E+00 0.105E-03 0.000E+00 0.344E-01 0.312E-07 0.522E-06 0.836E-07 0.189E-05 0.342E-07 0.208E-08 0.343E-01 0.361E-03 0.100E-11 .00000E+00 0.000E+00 0.000E+00
BIGSUB   5        0   19.58984E+02 0.000E+00 0.000E+00 0.133E+01 0.395E+00 0.191E+03 0.000E+00 0.609E-06 0.000E+00 0.121E-01 0.500E-12 0.612E-09 0.612E-09 0.612E-09 0.612E-09 0.122E-08 0.121E-01 0.871E-04 0.100E-11 .00000E+00 0.000E+00 0.000E+00
BIGSUB   1        0   20.76460E+02 0.000E+00 0.000E+00 0.156E+01 0.454E+00 0.163E+03 0.000E+00 0.603E-06 0.000E+00 0.512E-01 0.663E-12 0.606E-09 0.606E-09 0.606E-09 0.606E-09 0.121E-08 0.512E-01 0.733E-03 0.100E-11 .00000E+00 0.000E+00 0.000E+00
BIGSUB   2        0   20.85095E+02 0.000E+00 0.000E+00 0.156E+01 0.491E+00 0.152E+03 0.000E+00 0.743E-06 0.000E+00 0.396E-01 0.725E-12 0.747E-09 0.747E-09 0.747E-09 0.747E-09 0.149E-08 0.396E-01 0.528E-03 0.100E-11 .00000E+00 0.000E+00 0.000E+00
BIGSUB   3        0   20.34257E+02 0.000E+00 0.000E+00 0.155E+01 0.520E+00 0.210E+03 0.000E+00 0.959E-04 0.000E+00 0.159E-01 0.317E-07 0.420E-06 0.676E-07 0.177E-05 0.283E-07 0.305E-08 0.158E-01 0.232E-03 0.100E-11 .00000E+00 0.000E+00 0.000E+00
BIGSUB   4        0   20.36293E+02 0.000E+00 0.000E+00 0.155E+01 0.478E+00 0.278E+03 0.000E+00 0.887E-04 0.000E+00 0.321E-01 0.264E-07 0.442E-06 0.709E-07 0.160E-05 0.291E-07 0.203E-08 0.320E-01 0.333E-03 0.100E-11 .00000E+00 0.000E+00 0.000E+00
BIGSUB   5        0   20.58984E+02 0.000E+00 0.000E+00 0.154E+01 0.494E+00 0.190E+03 0.000E+00 0.609E-06 0.000E+00 0.110E-01 0.500E-12 0.612E-09 0.612E-09 0.612E-09 0.612E-09 0.122E-08 0.110E-01 0.767E-04 0.100E-11 .00000E+00 0.000E+00 0.000E+00
BIGSUB   1        0   21.76460E+02 0.000E+00 0.000E+00 0.106E+01 0.299E+00 0.163E+03 0.000E+00 0.603E-06 0.000E+00 0.489E-01 0.646E-12 0.606E-09 0.606E-09 0.606E-09 0.606E-09 0.121E-08 0.489E-01 0.700E-03 0.100E-11 .00000E+00 0.000E+00 0.000E+00
BIGSUB   2        0   21.85095E+02 0.000E+00 0.000E+00 0.106E+01 0.322E+00 0.152E+03 0.000E+00 0.743E-06 0.000E+00 0.378E-01 0.725E-12 0.747E-09 0.747E-09 0.747E-09 0.747E-09 0.149E-08 0.378E-01 0.503E-03 0.100E-11 .00000E+00 0.000E+00 0.000E+00
BIGSUB   3        0   21.34257E+02 0.000E+00 0.000E+00 0.105E+01 0.338E+00 0.210E+03 0.000E+00 0.783E-04 0.000E+00 0.148E-01 0.258E-07 0.343E-06 0.552E-07 0.144E-05 0.232E-07 0.279E-08 0.147E-01 0.214E-03 0.100E-11 .00000E+00 0.000E+00 0.000E+00
BIGSUB   4        0   21.36293E+02 0.000E+00 0.000E+00 0.105E+01 0.305E+00 0.278E+03 0.000E+00 0.752E-04 0.000E+00 0.300E-01 0.224E-07 0.374E-06 0.602E-07 0.135E-05 0.248E-07 0.199E-08 0.299E-01 0.309E-03 0.100E-11 .00000E+00 0.000E+00 0.000E+00
BIGSUB   5        0   21.58984E+02 0.000E+00 0.000E+00 0.105E+01 0.318E+00 0.190E+03 0.000E+00 0.609E-06 0.000E+00 0.101E-01 0.500E-12 0.612E-09 0.612E-09 0.612E-09 0.612E-09 0.122E-08 0.101E-01 0.680E-04 0.100E-11 .00000E+00 0.000E+00 0.000E+00
BIGSUB   1        0   22.76460E+02 0.000E+00 0.000E+00 0.978E+00 0.274E+00 0.162E+03 0.000E+00 0.603E-06 0.000E+00 0.467E-01 0.646E-12 0.606E-09 0.606E-09 0.606E-09 0.606E-09 0.121E-08 0.467E-01 0.669E-03 0.100E-11 .00000E+00 0.000E+00 0.000E+00
BIGSUB   2        0   22.85095E+02 0.000E+00 0.000E+00 0.977E+00 0.294E+00 0.151E+03 0.000E+00 0.743E-06 0.000E+00 0.361E-01 0.725E-12 0.747E-09 0.747E-09 0.747E-09 0.747E-09 0.149E-08 0.361E-01 0.479E-03 0.100E-11 .00000E+00 0.000E+00 0.000E+00
BIGSUB   3        0   22.34257E+02 0.000E+00 0.000E+00 0.968E+00 0.306E+00 0.210E+03 0.000E+00 0.640E-04 0.000E+00 0.138E-01 0.210E-07 0.279E-06 0.452E-07 0.118E-05 0.191E-07 0.258E-08 0.137E-01 0.198E-03 0.100E-11 .00000E+00 0.000E+00 0.000E+00
BIGSUB   4        0   22.36293E+02 0.000E+00 0.000E+00 0.970E+00 0.272E+00 0.278E+03 0.000E+00 0.638E-04 0.000E+00 0.281E-01 0.190E-07 0.317E-06 0.511E-07 0.115E-05 0.211E-07 0.195E-08 0.281E-01 0.287E-03 0.100E-11 .00000E+00 0.000E+00 0.000E+00
BIGSUB   5        0   22.58984E+02 0.000E+00 0.000E+00 0.966E+00 0.288E+00 0.189E+03 0.000E+00 0.609E-06 0.000E+00 0.930E-02 0.500E-12 0.612E-09 0.612E-09 0.612E-09 0.612E-09 0.122E-08 0.930E-02 0.606E-04 0.100E-11 .00000E+00 0.000E+00 0.000E+00
BIGSUB   1        0   23.76460E+02 0.000E+00 0.000E+00 0.151E+01 0.428E+00 0.162E+03 0.000E+00 0.603E-06 0.000E+00 0.446E-01 0.646E-12 0.606E-09 0.606E-09 0.606E-09 0.606E-09 0.121E-08 0.446E-01 0.640E-03 0.100E-11 .00000E+00 0.000E+00 0.000E+00
BIGSUB   2        0   23.85095E+02 0.000E+00 0.000E+00 0.151E+01 0.458E+00 0.151E+03 0.000E+00 0.743E-06 0.000E+00 0.344E-01 0.725E-12 0.747E-09 0.747E-09 0.747E-09 0.747E-09 0.149E-08 0.344E-01 0.457E-03 0.100E-11 .00000E+00 0.000E+00 0.000E+00
BIGSUB   3        0   23.34257E+02 0.000E+00 0.000E+00 0.150E+01 0.476E+00 0.209E+03 0.000E+00 0.523E-04 0.000E+00 0.129E-01 0.171E-07 0.228E-06 0.370E-07 0.959E-06 0.157E-07 0.241E-08 0.128E-01 0.184E-03 0.100E-11 .00000E+00 0.000E+00 0.000E+00
BIGSUB   4        0   23.36293E+02 0.000E+00 0.000E+00 0.150E+01 0.424E+00 0.277E+03 0.000E+00 0.542E-04 0.000E+00 0.265E-01 0.161E-07 0.269E-06 0.434E-07 0.971E-06 0.180E-07 0.192E-08 0.264E-01 0.268E-03 0.100E-11 .00000E+00 0.000E+00 0.000E+00
BIGSUB   5        0   23.58984E+02 0.000E+00 0.000E+00 0.149E+01 0.457E+00 0.189E+03 0.000E+00 0.609E-06 0.000E+00 0.860E-02 0.500E-12 0.612E-09 0.612E-09 0.612E-09 0.612E-09 0.122E-08 0.860E-02 0.544E-04 0.100E-11 .00000E+00 0.000E+00 0.000E+00
BIGSUB   1        0   24.76460E+02 0.261E+01 0.000E+00 0.985E+00 0.407E+00 0.164E+03 0.000E+00 0.180E-02 0.000E+00 0.522E-01 0.275E-04 0.174E-03 0.283E-04 0.841E-03 0.689E-05 0.111E-05 0.504E-01 0.113E-02 0.100E-11 .88850E-03 0.634E-02 0.378E-03
BIGSUB   2        0   24.85095E+02 0.000E+00 0.000E+00 0.118E+01 0.348E+00 0.151E+03 0.000E+00 0.743E-06 0.000E+00 0.329E-01 0.725E-12 0.747E-09 0.747E-09 0.747E-09 0.747E-09 0.149E-08 0.329E-01 0.437E-03 0.100E-11 .00000E+00 0.000E+00 0.000E+00
BIGSUB   3        0   24.34257E+02 0.000E+00 0.000E+00 0.117E+01 0.356E+00 0.209E+03 0.000E+00 0.428E-04 0.000E+00 0.121E-01 0.140E-07 0.186E-06 0.303E-07 0.782E-06 0.130E-07 0.227E-08 0.121E-01 0.172E-03 0.100E-11 .00000E+00 0.000E+00 0.000E+00
BIGSUB   4        0   24.36293E+02 0.000E+00 0.000E+00 0.117E+01 0.311E+00 0.277E+03 0.000E+00 0.460E-04 0.000E+00 0.249E-01 0.136E-07 0.228E-06 0.369E-07 0.822E-06 0.154E-07 0.190E-08 0.249E-01 0.250E-03 0.100E-11 .00000E+00 0.000E+00 0.000E+00