1
    SWAT Jun 01 2011    VER 2009/Rev. 481                                                                0/ 0/   0      0: 0: 0

    General Input/Output section (file.cio):                                        
    2013-7-14 00:00:00 ARCGIS-SWAT interface AV                                     
                                                                                    


       SUB      GIS  MON   AREAkm2  PRECIPmm SNOMELTmm     PETmm      ETmm      SWmm    PERCmm    SURQmm    GW_Qmm    WYLDmm  SYLDt/ha ORGNkg/ha ORGPkg/haNSURQkg/ha SOLPkg/ha SEDPkg/ha LAT Q(mm)LATNO3kg/hGWNO3kg/haCHOLAkg/haCBODUkg/ha DOXQkg/ha
BIGSUB   1        0    1.76460E+02 0.000E+00 0.000E+00 0.611E+00 0.169E+00 0.169E+03 0.000E+00 0.133E-03 0.754E-01 0.274E+00 0.767E-07 0.648E-06 0.810E-07 0.491E-06 0.384E-07 0.748E-08 0.198E+00 0.272E-02 0.894E-04 .00000E+00 0.000E+00 0.000E+00
BIGSUB   2        0    1.85095E+02 0.000E+00 0.000E+00 0.610E+00 0.188E+00 0.160E+03 0.000E+00 0.534E-05 0.722E-01 0.241E+00 0.374E-09 0.756E-09 0.747E-09 0.441E-07 0.175E-08 0.149E-08 0.169E+00 0.246E-02 0.113E-03 .00000E+00 0.000E+00 0.000E+00
BIGSUB   3        0    1.34257E+02 0.000E+00 0.000E+00 0.603E+00 0.218E+00 0.218E+03 0.000E+00 0.462E-02 0.554E-01 0.221E+00 0.140E-05 0.203E-04 0.323E-05 0.863E-04 0.134E-05 0.438E-07 0.161E+00 0.246E-02 0.671E-04 .00000E+00 0.000E+00 0.000E+00
BIGSUB   4        0    1.36293E+02 0.000E+00 0.000E+00 0.604E+00 0.210E+00 0.286E+03 0.000E+00 0.207E-02 0.604E-01 0.279E+00 0.621E-06 0.104E-04 0.165E-05 0.376E-04 0.665E-06 0.800E-08 0.216E+00 0.276E-02 0.114E-03 .00000E+00 0.000E+00 0.000E+00
BIGSUB   5        0    1.58984E+02 0.000E+00 0.000E+00 0.601E+00 0.172E+00 0.198E+03 0.000E+00 0.279E-04 0.509E-01 0.230E+00 0.255E-10 0.612E-09 0.612E-09 0.108E-06 0.764E-08 0.122E-08 0.179E+00 0.196E-02 0.663E-04 .00000E+00 0.000E+00 0.000E+00
BIGSUB   1        0    2.76460E+02 0.000E+00 0.000E+00 0.815E+00 0.238E+00 0.169E+03 0.000E+00 0.627E-04 0.734E-01 0.250E+00 0.364E-07 0.318E-06 0.398E-07 0.227E-06 0.183E-07 0.382E-08 0.177E+00 0.244E-02 0.868E-04 .00000E+00 0.000E+00 0.000E+00
BIGSUB   2        0    2.85095E+02 0.000E+00 0.000E+00 0.814E+00 0.265E+00 0.160E+03 0.000E+00 0.207E-05 0.702E-01 0.219E+00 0.945E-10 0.747E-09 0.747E-09 0.154E-07 0.899E-09 0.149E-08 0.149E+00 0.215E-02 0.110E-03 .00000E+00 0.000E+00 0.000E+00
BIGSUB   3        0    2.34257E+02 0.000E+00 0.000E+00 0.806E+00 0.303E+00 0.218E+03 0.000E+00 0.377E-02 0.538E-01 0.194E+00 0.114E-05 0.165E-04 0.263E-05 0.703E-04 0.109E-05 0.360E-07 0.136E+00 0.208E-02 0.652E-04 .00000E+00 0.000E+00 0.000E+00
BIGSUB   4        0    2.36293E+02 0.000E+00 0.000E+00 0.808E+00 0.289E+00 0.286E+03 0.000E+00 0.175E-02 0.587E-01 0.250E+00 0.526E-06 0.878E-05 0.140E-05 0.319E-04 0.563E-06 0.704E-08 0.189E+00 0.240E-02 0.110E-03 .00000E+00 0.000E+00 0.000E+00
BIGSUB   5        0    2.58984E+02 0.000E+00 0.000E+00 0.804E+00 0.245E+00 0.198E+03 0.000E+00 0.147E-04 0.495E-01 0.198E+00 0.699E-11 0.612E-09 0.612E-09 0.565E-07 0.414E-08 0.122E-08 0.148E+00 0.161E-02 0.644E-04 .00000E+00 0.000E+00 0.000E+00
BIGSUB   1        0    3.76460E+02 0.000E+00 0.000E+00 0.894E+00 0.261E+00 0.169E+03 0.000E+00 0.298E-04 0.714E-01 0.230E+00 0.174E-07 0.156E-06 0.196E-07 0.108E-06 0.877E-08 0.219E-08 0.159E+00 0.220E-02 0.843E-04 .00000E+00 0.000E+00 0.000E+00
BIGSUB   2        0    3.85095E+02 0.000E+00 0.000E+00 0.893E+00 0.292E+00 0.159E+03 0.000E+00 0.101E-05 0.683E-01 0.201E+00 0.243E-10 0.747E-09 0.747E-09 0.555E-08 0.747E-09 0.149E-08 0.133E+00 0.189E-02 0.106E-03 .00000E+00 0.000E+00 0.000E+00
BIGSUB   3        0    3.34257E+02 0.000E+00 0.000E+00 0.885E+00 0.329E+00 0.217E+03 0.000E+00 0.307E-02 0.524E-01 0.171E+00 0.926E-06 0.135E-04 0.215E-05 0.573E-04 0.889E-06 0.296E-07 0.115E+00 0.176E-02 0.633E-04 .00000E+00 0.000E+00 0.000E+00
BIGSUB   4        0    3.36293E+02 0.000E+00 0.000E+00 0.887E+00 0.314E+00 0.286E+03 0.000E+00 0.148E-02 0.571E-01 0.225E+00 0.445E-06 0.744E-05 0.118E-05 0.270E-04 0.477E-06 0.624E-08 0.166E+00 0.208E-02 0.107E-03 .00000E+00 0.000E+00 0.000E+00
BIGSUB   5        0    3.58984E+02 0.000E+00 0.000E+00 0.883E+00 0.272E+00 0.197E+03 0.000E+00 0.779E-05 0.482E-01 0.171E+00 0.212E-11 0.612E-09 0.612E-09 0.296E-07 0.231E-08 0.122E-08 0.123E+00 0.132E-02 0.625E-04 .00000E+00 0.000E+00 0.000E+00
BIGSUB   1        0    4.76460E+02 0.000E+00 0.000E+00 0.106E+01 0.309E+00 0.168E+03 0.000E+00 0.143E-04 0.694E-01 0.213E+00 0.838E-08 0.767E-07 0.983E-08 0.518E-07 0.427E-08 0.150E-08 0.144E+00 0.200E-02 0.818E-04 .00000E+00 0.000E+00 0.000E+00
BIGSUB   2        0    4.85095E+02 0.000E+00 0.000E+00 0.106E+01 0.344E+00 0.159E+03 0.000E+00 0.743E-06 0.664E-01 0.185E+00 0.659E-11 0.747E-09 0.747E-09 0.224E-08 0.747E-09 0.149E-08 0.119E+00 0.168E-02 0.103E-03 .00000E+00 0.000E+00 0.000E+00
BIGSUB   3        0    4.34257E+02 0.000E+00 0.000E+00 0.105E+01 0.385E+00 0.217E+03 0.000E+00 0.250E-02 0.509E-01 0.152E+00 0.755E-06 0.110E-04 0.175E-05 0.467E-04 0.725E-06 0.245E-07 0.983E-01 0.150E-02 0.614E-04 .00000E+00 0.000E+00 0.000E+00
BIGSUB   4        0    4.36293E+02 0.000E+00 0.000E+00 0.106E+01 0.365E+00 0.285E+03 0.000E+00 0.126E-02 0.556E-01 0.204E+00 0.377E-06 0.630E-05 0.100E-05 0.229E-04 0.404E-06 0.555E-08 0.147E+00 0.182E-02 0.104E-03 .00000E+00 0.000E+00 0.000E+00
BIGSUB   5        0    4.58984E+02 0.000E+00 0.000E+00 0.105E+01 0.322E+00 0.197E+03 0.000E+00 0.422E-05 0.468E-01 0.149E+00 0.833E-12 0.612E-09 0.612E-09 0.156E-07 0.136E-08 0.122E-08 0.103E+00 0.109E-02 0.607E-04 .00000E+00 0.000E+00 0.000E+00
BIGSUB   1        0    5.76460E+02 0.000E+00 0.000E+00 0.934E+00 0.270E+00 0.168E+03 0.000E+00 0.697E-05 0.675E-01 0.198E+00 0.405E-08 0.378E-07 0.501E-08 0.250E-07 0.222E-08 0.121E-08 0.131E+00 0.183E-02 0.794E-04 .00000E+00 0.000E+00 0.000E+00
BIGSUB   2        0    5.85095E+02 0.000E+00 0.000E+00 0.933E+00 0.298E+00 0.159E+03 0.000E+00 0.743E-06 0.646E-01 0.172E+00 0.213E-11 0.747E-09 0.747E-09 0.107E-08 0.747E-09 0.149E-08 0.107E+00 0.150E-02 0.100E-03 .00000E+00 0.000E+00 0.000E+00
BIGSUB   3        0    5.34257E+02 0.000E+00 0.000E+00 0.925E+00 0.330E+00 0.217E+03 0.000E+00 0.204E-02 0.495E-01 0.136E+00 0.615E-06 0.895E-05 0.143E-05 0.381E-04 0.591E-06 0.203E-07 0.841E-01 0.128E-02 0.596E-04 .00000E+00 0.000E+00 0.000E+00
BIGSUB   4        0    5.36293E+02 0.000E+00 0.000E+00 0.926E+00 0.311E+00 0.285E+03 0.000E+00 0.106E-02 0.540E-01 0.185E+00 0.319E-06 0.534E-05 0.848E-06 0.194E-04 0.342E-06 0.497E-08 0.130E+00 0.159E-02 0.101E-03 .00000E+00 0.000E+00 0.000E+00
BIGSUB   5        0    5.58984E+02 0.000E+00 0.000E+00 0.922E+00 0.279E+00 0.197E+03 0.000E+00 0.235E-05 0.456E-01 0.131E+00 0.500E-12 0.612E-09 0.612E-09 0.827E-08 0.864E-09 0.122E-08 0.858E-01 0.896E-03 0.589E-04 .00000E+00 0.000E+00 0.000E+00
BIGSUB   1        0    6.76460E+02 0.000E+00 0.000E+00 0.769E+00 0.221E+00 0.168E+03 0.000E+00 0.346E-05 0.656E-01 0.185E+00 0.197E-08 0.188E-07 0.263E-08 0.122E-07 0.126E-08 0.121E-08 0.120E+00 0.168E-02 0.771E-04 .00000E+00 0.000E+00 0.000E+00
BIGSUB   2        0    6.85095E+02 0.000E+00 0.000E+00 0.768E+00 0.243E+00 0.158E+03 0.000E+00 0.743E-06 0.628E-01 0.160E+00 0.101E-11 0.747E-09 0.747E-09 0.747E-09 0.747E-09 0.149E-08 0.974E-01 0.135E-02 0.974E-04 .00000E+00 0.000E+00 0.000E+00
BIGSUB   3        0    6.34257E+02 0.000E+00 0.000E+00 0.760E+00 0.267E+00 0.216E+03 0.000E+00 0.166E-02 0.482E-01 0.122E+00 0.502E-06 0.729E-05 0.116E-05 0.310E-04 0.482E-06 0.168E-07 0.724E-01 0.110E-02 0.579E-04 .00000E+00 0.000E+00 0.000E+00
BIGSUB   4        0    6.36293E+02 0.000E+00 0.000E+00 0.761E+00 0.250E+00 0.285E+03 0.000E+00 0.901E-03 0.526E-01 0.169E+00 0.271E-06 0.452E-05 0.719E-06 0.164E-04 0.290E-06 0.448E-08 0.115E+00 0.139E-02 0.981E-04 .00000E+00 0.000E+00 0.000E+00
BIGSUB   5        0    6.58984E+02 0.000E+00 0.000E+00 0.758E+00 0.228E+00 0.197E+03 0.000E+00 0.138E-05 0.443E-01 0.116E+00 0.500E-12 0.612E-09 0.612E-09 0.447E-08 0.612E-09 0.122E-08 0.720E-01 0.741E-03 0.572E-04 .00000E+00 0.000E+00 0.000E+00
BIGSUB   1        0    7.76460E+02 0.000E+00 0.000E+00 0.116E+01 0.334E+00 0.168E+03 0.000E+00 0.187E-05 0.638E-01 0.174E+00 0.959E-09 0.941E-08 0.146E-08 0.598E-08 0.790E-09 0.121E-08 0.110E+00 0.155E-02 0.749E-04 .00000E+00 0.000E+00 0.000E+00
BIGSUB   2        0    7.85095E+02 0.000E+00 0.000E+00 0.116E+01 0.367E+00 0.158E+03 0.000E+00 0.743E-06 0.611E-01 0.150E+00 0.732E-12 0.747E-09 0.747E-09 0.747E-09 0.747E-09 0.149E-08 0.890E-01 0.122E-02 0.946E-04 .00000E+00 0.000E+00 0.000E+00
BIGSUB   3        0    7.34257E+02 0.000E+00 0.000E+00 0.115E+01 0.403E+00 0.216E+03 0.000E+00 0.136E-02 0.469E-01 0.111E+00 0.409E-06 0.595E-05 0.948E-06 0.253E-04 0.393E-06 0.140E-07 0.626E-01 0.949E-03 0.562E-04 .00000E+00 0.000E+00 0.000E+00
BIGSUB   4        0    7.36293E+02 0.000E+00 0.000E+00 0.115E+01 0.378E+00 0.284E+03 0.000E+00 0.763E-03 0.511E-01 0.154E+00 0.229E-06 0.383E-05 0.609E-06 0.139E-04 0.246E-06 0.406E-08 0.103E+00 0.123E-02 0.952E-04 .00000E+00 0.000E+00 0.000E+00
BIGSUB   5        0    7.58984E+02 0.000E+00 0.000E+00 0.115E+01 0.348E+00 0.196E+03 0.000E+00 0.874E-06 0.431E-01 0.104E+00 0.500E-12 0.612E-09 0.612E-09 0.248E-08 0.612E-09 0.122E-08 0.607E-01 0.613E-03 0.555E-04 .00000E+00 0.000E+00 0.000E+00
BIGSUB   1        0    8.76460E+02 0.000E+00 0.000E+00 0.138E+01 0.397E+00 0.167E+03 0.000E+00 0.109E-05 0.621E-01 0.164E+00 0.468E-09 0.480E-08 0.890E-09 0.310E-08 0.606E-09 0.121E-08 0.102E+00 0.144E-02 0.727E-04 .00000E+00 0.000E+00 0.000E+00
BIGSUB   2        0    8.85095E+02 0.000E+00 0.000E+00 0.138E+01 0.435E+00 0.158E+03 0.000E+00 0.743E-06 0.594E-01 0.141E+00 0.725E-12 0.747E-09 0.747E-09 0.747E-09 0.747E-09 0.149E-08 0.818E-01 0.112E-02 0.918E-04 .00000E+00 0.000E+00 0.000E+00
BIGSUB   3        0    8.34257E+02 0.000E+00 0.000E+00 0.137E+01 0.477E+00 0.216E+03 0.000E+00 0.111E-02 0.456E-01 0.101E+00 0.333E-06 0.485E-05 0.773E-06 0.206E-04 0.321E-06 0.117E-07 0.545E-01 0.822E-03 0.546E-04 .00000E+00 0.000E+00 0.000E+00
BIGSUB   4        0    8.36293E+02 0.000E+00 0.000E+00 0.137E+01 0.446E+00 0.284E+03 0.000E+00 0.646E-03 0.497E-01 0.142E+00 0.194E-06 0.324E-05 0.516E-06 0.118E-04 0.208E-06 0.371E-08 0.917E-01 0.108E-02 0.924E-04 .00000E+00 0.000E+00 0.000E+00
BIGSUB   5        0    8.58984E+02 0.000E+00 0.000E+00 0.137E+01 0.418E+00 0.196E+03 0.000E+00 0.610E-06 0.419E-01 0.933E-01 0.500E-12 0.612E-09 0.612E-09 0.145E-08 0.612E-09 0.122E-08 0.514E-01 0.509E-03 0.539E-04 .00000E+00 0.000E+00 0.000E+00
BIGSUB   1        0    9.76460E+02 0.000E+00 0.000E+00 0.860E+00 0.246E+00 0.167E+03 0.000E+00 0.705E-06 0.604E-01 0.155E+00 0.229E-09 0.253E-08 0.608E-09 0.169E-08 0.606E-09 0.121E-08 0.947E-01 0.134E-02 0.706E-04 .00000E+00 0.000E+00 0.000E+00
BIGSUB   2        0    9.85095E+02 0.000E+00 0.000E+00 0.859E+00 0.268E+00 0.157E+03 0.000E+00 0.743E-06 0.578E-01 0.133E+00 0.725E-12 0.747E-09 0.747E-09 0.747E-09 0.747E-09 0.149E-08 0.756E-01 0.102E-02 0.891E-04 .00000E+00 0.000E+00 0.000E+00
BIGSUB   3        0    9.34257E+02 0.000E+00 0.000E+00 0.851E+00 0.291E+00 0.215E+03 0.000E+00 0.902E-03 0.443E-01 0.929E-01 0.272E-06 0.395E-05 0.630E-06 0.168E-04 0.262E-06 0.987E-08 0.476E-01 0.716E-03 0.530E-04 .00000E+00 0.000E+00 0.000E+00
BIGSUB   4        0    9.36293E+02 0.000E+00 0.000E+00 0.852E+00 0.269E+00 0.284E+03 0.000E+00 0.547E-03 0.483E-01 0.131E+00 0.164E-06 0.275E-05 0.437E-06 0.996E-05 0.177E-06 0.341E-08 0.823E-01 0.958E-03 0.897E-04 .00000E+00 0.000E+00 0.000E+00
BIGSUB   5        0    9.58984E+02 0.000E+00 0.000E+00 0.849E+00 0.256E+00 0.196E+03 0.000E+00 0.609E-06 0.408E-01 0.845E-01 0.500E-12 0.612E-09 0.612E-09 0.910E-09 0.612E-09 0.122E-08 0.437E-01 0.424E-03 0.523E-04 .00000E+00 0.000E+00 0.000E+00
BIGSUB   1        0   10.76460E+02 0.000E+00 0.000E+00 0.118E+01 0.338E+00 0.167E+03 0.000E+00 0.603E-06 0.587E-01 0.147E+00 0.113E-09 0.142E-08 0.606E-09 0.100E-08 0.606E-09 0.121E-08 0.884E-01 0.125E-02 0.685E-04 .00000E+00 0.000E+00 0.000E+00
BIGSUB   2        0   10.85095E+02 0.201E+00 0.000E+00 0.432E+00 0.174E+00 0.157E+03 0.000E+00 0.743E-06 0.562E-01 0.126E+00 0.725E-12 0.747E-09 0.747E-09 0.747E-09 0.747E-09 0.149E-08 0.702E-01 0.943E-03 0.865E-04 .00000E+00 0.000E+00 0.000E+00
BIGSUB   3        0   10.34257E+02 0.100E+00 0.000E+00 0.429E+00 0.186E+00 0.215E+03 0.000E+00 0.148E-03 0.431E-01 0.852E-01 0.222E-06 0.322E-05 0.514E-06 0.137E-04 0.213E-06 0.835E-08 0.419E-01 0.627E-03 0.514E-04 .00000E+00 0.000E+00 0.000E+00
BIGSUB   4        0   10.36293E+02 0.100E+00 0.000E+00 0.429E+00 0.188E+00 0.284E+03 0.000E+00 0.111E-03 0.470E-01 0.121E+00 0.139E-06 0.232E-05 0.370E-06 0.843E-05 0.150E-06 0.316E-08 0.741E-01 0.852E-03 0.871E-04 .00000E+00 0.000E+00 0.000E+00
BIGSUB   5        0   10.58984E+02 0.100E+00 0.000E+00 0.428E+00 0.180E+00 0.196E+03 0.000E+00 0.609E-06 0.396E-01 0.770E-01 0.500E-12 0.612E-09 0.612E-09 0.630E-09 0.612E-09 0.122E-08 0.374E-01 0.354E-03 0.508E-04 .00000E+00 0.000E+00 0.000E+00
BIGSUB   1        0   11.76460E+02 0.000E+00 0.000E+00 0.141E+01 0.402E+00 0.166E+03 0.000E+00 0.603E-06 0.571E-01 0.140E+00 0.554E-10 0.866E-09 0.606E-09 0.663E-09 0.606E-09 0.121E-08 0.828E-01 0.118E-02 0.665E-04 .00000E+00 0.000E+00 0.000E+00
BIGSUB   2        0   11.85095E+02 0.000E+00 0.000E+00 0.141E+01 0.442E+00 0.157E+03 0.000E+00 0.743E-06 0.547E-01 0.120E+00 0.725E-12 0.747E-09 0.747E-09 0.747E-09 0.747E-09 0.149E-08 0.655E-01 0.874E-03 0.840E-04 .00000E+00 0.000E+00 0.000E+00
BIGSUB   3        0   11.34257E+02 0.000E+00 0.000E+00 0.140E+01 0.479E+00 0.215E+03 0.000E+00 0.600E-03 0.419E-01 0.796E-01 0.181E-06 0.263E-05 0.419E-06 0.112E-04 0.174E-06 0.712E-08 0.371E-01 0.552E-03 0.500E-04 .00000E+00 0.000E+00 0.000E+00
BIGSUB   4        0   11.36293E+02 0.000E+00 0.000E+00 0.140E+01 0.445E+00 0.283E+03 0.000E+00 0.393E-03 0.457E-01 0.113E+00 0.118E-06 0.197E-05 0.314E-06 0.714E-05 0.127E-06 0.294E-08 0.671E-01 0.760E-03 0.846E-04 .00000E+00 0.000E+00 0.000E+00
BIGSUB   5        0   11.58984E+02 0.000E+00 0.000E+00 0.140E+01 0.427E+00 0.195E+03 0.000E+00 0.609E-06 0.386E-01 0.707E-01 0.500E-12 0.612E-09 0.612E-09 0.612E-09 0.612E-09 0.122E-08 0.322E-01 0.297E-03 0.493E-04 .00000E+00 0.000E+00 0.000E+00
BIGSUB   1        0   12.76460E+02 0.000E+00 0.000E+00 0.106E+01 0.303E+00 0.166E+03 0.000E+00 0.603E-06 0.555E-01 0.133E+00 0.275E-10 0.606E-09 0.606E-09 0.606E-09 0.606E-09 0.121E-08 0.778E-01 0.111E-02 0.646E-04 .00000E+00 0.000E+00 0.000E+00
BIGSUB   2        0   12.85095E+02 0.000E+00 0.000E+00 0.106E+01 0.331E+00 0.157E+03 0.000E+00 0.743E-06 0.532E-01 0.114E+00 0.725E-12 0.747E-09 0.747E-09 0.747E-09 0.747E-09 0.149E-08 0.613E-01 0.813E-03 0.816E-04 .00000E+00 0.000E+00 0.000E+00
BIGSUB   3        0   12.34257E+02 0.000E+00 0.000E+00 0.105E+01 0.357E+00 0.214E+03 0.000E+00 0.489E-03 0.408E-01 0.743E-01 0.147E-06 0.214E-05 0.342E-06 0.911E-05 0.142E-06 0.611E-08 0.330E-01 0.489E-03 0.485E-04 .00000E+00 0.000E+00 0.000E+00
BIGSUB   4        0   12.36293E+02 0.000E+00 0.000E+00 0.106E+01 0.330E+00 0.283E+03 0.000E+00 0.333E-03 0.445E-01 0.106E+00 0.998E-07 0.167E-05 0.266E-06 0.605E-05 0.108E-06 0.276E-08 0.609E-01 0.681E-03 0.821E-04 .00000E+00 0.000E+00 0.000E+00
BIGSUB   5        0   12.58984E+02 0.000E+00 0.000E+00 0.105E+01 0.321E+00 0.195E+03 0.000E+00 0.609E-06 0.375E-01 0.654E-01 0.500E-12 0.612E-09 0.612E-09 0.612E-09 0.612E-09 0.122E-08 0.279E-01 0.250E-03 0.479E-04 .00000E+00 0.000E+00 0.000E+00
BIGSUB   1        0   13.76460E+02 0.000E+00 0.000E+00 0.122E+01 0.346E+00 0.166E+03 0.000E+00 0.603E-06 0.540E-01 0.127E+00 0.137E-10 0.606E-09 0.606E-09 0.606E-09 0.606E-09 0.121E-08 0.734E-01 0.105E-02 0.627E-04 .00000E+00 0.000E+00 0.000E+00
BIGSUB   2        0   13.85095E+02 0.000E+00 0.000E+00 0.122E+01 0.375E+00 0.156E+03 0.000E+00 0.743E-06 0.517E-01 0.109E+00 0.725E-12 0.747E-09 0.747E-09 0.747E-09 0.747E-09 0.149E-08 0.575E-01 0.760E-03 0.792E-04 .00000E+00 0.000E+00 0.000E+00
BIGSUB   3        0   13.34257E+02 0.000E+00 0.000E+00 0.121E+01 0.400E+00 0.214E+03 0.000E+00 0.399E-03 0.397E-01 0.696E-01 0.120E-06 0.175E-05 0.279E-06 0.742E-05 0.116E-06 0.528E-08 0.296E-01 0.435E-03 0.471E-04 .00000E+00 0.000E+00 0.000E+00
BIGSUB   4        0   13.36293E+02 0.000E+00 0.000E+00 0.121E+01 0.365E+00 0.282E+03 0.000E+00 0.282E-03 0.433E-01 0.990E-01 0.845E-07 0.141E-05 0.225E-06 0.512E-05 0.912E-07 0.261E-08 0.555E-01 0.612E-03 0.797E-04 .00000E+00 0.000E+00 0.000E+00
BIGSUB   5        0   13.58984E+02 0.000E+00 0.000E+00 0.120E+01 0.359E+00 0.194E+03 0.000E+00 0.609E-06 0.365E-01 0.607E-01 0.500E-12 0.612E-09 0.612E-09 0.612E-09 0.612E-09 0.122E-08 0.243E-01 0.212E-03 0.465E-04 .00000E+00 0.000E+00 0.000E+00
BIGSUB   1        0   14.76460E+02 0.000E+00 0.000E+00 0.877E+00 0.248E+00 0.165E+03 0.000E+00 0.603E-06 0.525E-01 0.122E+00 0.705E-11 0.606E-09 0.606E-09 0.606E-09 0.606E-09 0.121E-08 0.693E-01 0.991E-03 0.609E-04 .00000E+00 0.000E+00 0.000E+00
BIGSUB   2        0   14.85095E+02 0.000E+00 0.000E+00 0.877E+00 0.268E+00 0.156E+03 0.000E+00 0.743E-06 0.503E-01 0.104E+00 0.725E-12 0.747E-09 0.747E-09 0.747E-09 0.747E-09 0.149E-08 0.542E-01 0.713E-03 0.769E-04 .00000E+00 0.000E+00 0.000E+00
BIGSUB   3        0   14.34257E+02 0.000E+00 0.000E+00 0.868E+00 0.284E+00 0.214E+03 0.000E+00 0.325E-03 0.386E-01 0.655E-01 0.978E-07 0.142E-05 0.227E-06 0.605E-05 0.947E-07 0.461E-08 0.266E-01 0.389E-03 0.457E-04 .00000E+00 0.000E+00 0.000E+00
BIGSUB   4        0   14.36293E+02 0.000E+00 0.000E+00 0.870E+00 0.258E+00 0.282E+03 0.000E+00 0.239E-03 0.421E-01 0.931E-01 0.716E-07 0.120E-05 0.191E-06 0.434E-05 0.774E-07 0.248E-08 0.508E-01 0.553E-03 0.774E-04 .00000E+00 0.000E+00 0.000E+00
BIGSUB   5        0   14.58984E+02 0.000E+00 0.000E+00 0.865E+00 0.256E+00 0.194E+03 0.000E+00 0.609E-06 0.355E-01 0.567E-01 0.500E-12 0.612E-09 0.612E-09 0.612E-09 0.612E-09 0.122E-08 0.213E-01 0.180E-03 0.451E-04 .00000E+00 0.000E+00 0.000E+00
BIGSUB   1        0   15.76460E+02 0.000E+00 0.000E+00 0.111E+01 0.316E+00 0.165E+03 0.000E+00 0.603E-06 0.511E-01 0.117E+00 0.376E-11 0.606E-09 0.606E-09 0.606E-09 0.606E-09 0.121E-08 0.657E-01 0.939E-03 0.591E-04 .00000E+00 0.000E+00 0.000E+00
BIGSUB   2        0   15.85095E+02 0.000E+00 0.000E+00 0.111E+01 0.340E+00 0.156E+03 0.000E+00 0.743E-06 0.489E-01 0.100E+00 0.725E-12 0.747E-09 0.747E-09 0.747E-09 0.747E-09 0.149E-08 0.512E-01 0.670E-03 0.746E-04 .00000E+00 0.000E+00 0.000E+00
BIGSUB   3        0   15.34257E+02 0.000E+00 0.000E+00 0.110E+01 0.359E+00 0.213E+03 0.000E+00 0.265E-03 0.375E-01 0.619E-01 0.798E-07 0.116E-05 0.186E-06 0.493E-05 0.773E-07 0.407E-08 0.241E-01 0.350E-03 0.444E-04 .00000E+00 0.000E+00 0.000E+00
BIGSUB   4        0   15.36293E+02 0.000E+00 0.000E+00 0.111E+01 0.325E+00 0.282E+03 0.000E+00 0.202E-03 0.409E-01 0.877E-01 0.606E-07 0.101E-05 0.162E-06 0.367E-05 0.657E-07 0.237E-08 0.466E-01 0.501E-03 0.751E-04 .00000E+00 0.000E+00 0.000E+00
BIGSUB   5        0   15.58984E+02 0.000E+00 0.000E+00 0.110E+01 0.326E+00 0.194E+03 0.000E+00 0.609E-06 0.345E-01 0.533E-01 0.500E-12 0.612E-09 0.612E-09 0.612E-09 0.612E-09 0.122E-08 0.188E-01 0.154E-03 0.438E-04 .00000E+00 0.000E+00 0.000E+00
BIGSUB   1        0   16.76460E+02 0.000E+00 0.000E+00 0.106E+01 0.301E+00 0.165E+03 0.000E+00 0.603E-06 0.497E-01 0.112E+00 0.215E-11 0.606E-09 0.606E-09 0.606E-09 0.606E-09 0.121E-08 0.623E-01 0.892E-03 0.574E-04 .00000E+00 0.000E+00 0.000E+00
BIGSUB   2        0   16.85095E+02 0.000E+00 0.000E+00 0.106E+01 0.325E+00 0.155E+03 0.000E+00 0.743E-06 0.476E-01 0.960E-01 0.725E-12 0.747E-09 0.747E-09 0.747E-09 0.747E-09 0.149E-08 0.485E-01 0.632E-03 0.724E-04 .00000E+00 0.000E+00 0.000E+00
BIGSUB   3        0   16.34257E+02 0.000E+00 0.000E+00 0.105E+01 0.342E+00 0.213E+03 0.000E+00 0.216E-03 0.365E-01 0.586E-01 0.650E-07 0.946E-06 0.151E-06 0.402E-05 0.632E-07 0.362E-08 0.219E-01 0.316E-03 0.431E-04 .00000E+00 0.000E+00 0.000E+00
BIGSUB   4        0   16.36293E+02 0.000E+00 0.000E+00 0.105E+01 0.310E+00 0.282E+03 0.000E+00 0.172E-03 0.398E-01 0.829E-01 0.513E-07 0.858E-06 0.137E-06 0.311E-05 0.558E-07 0.228E-08 0.429E-01 0.456E-03 0.729E-04 .00000E+00 0.000E+00 0.000E+00
BIGSUB   5        0   16.58984E+02 0.000E+00 0.000E+00 0.105E+01 0.313E+00 0.194E+03 0.000E+00 0.609E-06 0.335E-01 0.502E-01 0.500E-12 0.612E-09 0.612E-09 0.612E-09 0.612E-09 0.122E-08 0.167E-01 0.132E-03 0.425E-04 .00000E+00 0.000E+00 0.000E+00
BIGSUB   1        0   17.76460E+02 0.000E+00 0.000E+00 0.776E+00 0.220E+00 0.165E+03 0.000E+00 0.603E-06 0.483E-01 0.108E+00 0.135E-11 0.606E-09 0.606E-09 0.606E-09 0.606E-09 0.121E-08 0.592E-01 0.849E-03 0.557E-04 .00000E+00 0.000E+00 0.000E+00
BIGSUB   2        0   17.85095E+02 0.000E+00 0.000E+00 0.775E+00 0.236E+00 0.155E+03 0.000E+00 0.743E-06 0.463E-01 0.922E-01 0.725E-12 0.747E-09 0.747E-09 0.747E-09 0.747E-09 0.149E-08 0.459E-01 0.598E-03 0.703E-04 .00000E+00 0.000E+00 0.000E+00
BIGSUB   3        0   17.34257E+02 0.000E+00 0.000E+00 0.767E+00 0.247E+00 0.213E+03 0.000E+00 0.177E-03 0.355E-01 0.557E-01 0.530E-07 0.771E-06 0.124E-06 0.328E-05 0.517E-07 0.326E-08 0.201E-01 0.287E-03 0.418E-04 .00000E+00 0.000E+00 0.000E+00
BIGSUB   4        0   17.36293E+02 0.000E+00 0.000E+00 0.769E+00 0.223E+00 0.281E+03 0.000E+00 0.145E-03 0.387E-01 0.785E-01 0.435E-07 0.727E-06 0.116E-06 0.263E-05 0.474E-07 0.220E-08 0.397E-01 0.416E-03 0.708E-04 .00000E+00 0.000E+00 0.000E+00
BIGSUB   5        0   17.58984E+02 0.000E+00 0.000E+00 0.765E+00 0.227E+00 0.193E+03 0.000E+00 0.609E-06 0.326E-01 0.475E-01 0.500E-12 0.612E-09 0.612E-09 0.612E-09 0.612E-09 0.122E-08 0.149E-01 0.114E-03 0.413E-04 .00000E+00 0.000E+00 0.000E+00
BIGSUB   1        0   18.76460E+02 0.000E+00 0.000E+00 0.843E+00 0.239E+00 0.164E+03 0.000E+00 0.603E-06 0.470E-01 0.103E+00 0.958E-12 0.606E-09 0.606E-09 0.606E-09 0.606E-09 0.121E-08 0.563E-01 0.808E-03 0.541E-04 .00000E+00 0.000E+00 0.000E+00
BIGSUB   2        0   18.85095E+02 0.000E+00 0.000E+00 0.843E+00 0.257E+00 0.155E+03 0.000E+00 0.743E-06 0.450E-01 0.886E-01 0.725E-12 0.747E-09 0.747E-09 0.747E-09 0.747E-09 0.149E-08 0.436E-01 0.567E-03 0.683E-04 .00000E+00 0.000E+00 0.000E+00
BIGSUB   3        0   18.34257E+02 0.000E+00 0.000E+00 0.834E+00 0.268E+00 0.212E+03 0.000E+00 0.144E-03 0.345E-01 0.531E-01 0.432E-07 0.629E-06 0.101E-06 0.267E-05 0.423E-07 0.296E-08 0.184E-01 0.261E-03 0.406E-04 .00000E+00 0.000E+00 0.000E+00
BIGSUB   4        0   18.36293E+02 0.000E+00 0.000E+00 0.836E+00 0.242E+00 0.281E+03 0.000E+00 0.123E-03 0.376E-01 0.746E-01 0.368E-07 0.616E-06 0.986E-07 0.223E-05 0.402E-07 0.213E-08 0.368E-01 0.382E-03 0.687E-04 .00000E+00 0.000E+00 0.000E+00
BIGSUB   5        0   18.58984E+02 0.000E+00 0.000E+00 0.831E+00 0.247E+00 0.193E+03 0.000E+00 0.609E-06 0.317E-01 0.451E-01 0.500E-12 0.612E-09 0.612E-09 0.612E-09 0.612E-09 0.122E-08 0.134E-01 0.993E-04 0.401E-04 .00000E+00 0.000E+00 0.000E+00
BIGSUB   1        0   19.76460E+02 0.000E+00 0.000E+00 0.134E+01 0.381E+00 0.164E+03 0.000E+00 0.603E-06 0.457E-01 0.994E-01 0.766E-12 0.606E-09 0.606E-09 0.606E-09 0.606E-09 0.121E-08 0.537E-01 0.771E-03 0.525E-04 .00000E+00 0.000E+00 0.000E+00
BIGSUB   2        0   19.85095E+02 0.000E+00 0.000E+00 0.134E+01 0.410E+00 0.154E+03 0.000E+00 0.743E-06 0.438E-01 0.853E-01 0.725E-12 0.747E-09 0.747E-09 0.747E-09 0.747E-09 0.149E-08 0.415E-01 0.538E-03 0.663E-04 .00000E+00 0.000E+00 0.000E+00
BIGSUB   3        0   19.34257E+02 0.000E+00 0.000E+00 0.133E+01 0.430E+00 0.212E+03 0.000E+00 0.118E-03 0.336E-01 0.507E-01 0.352E-07 0.513E-06 0.824E-07 0.218E-05 0.346E-07 0.272E-08 0.170E-01 0.239E-03 0.394E-04 .00000E+00 0.000E+00 0.000E+00
BIGSUB   4        0   19.36293E+02 0.000E+00 0.000E+00 0.133E+01 0.390E+00 0.281E+03 0.000E+00 0.105E-03 0.366E-01 0.710E-01 0.312E-07 0.522E-06 0.836E-07 0.189E-05 0.342E-07 0.207E-08 0.343E-01 0.351E-03 0.667E-04 .00000E+00 0.000E+00 0.000E+00
BIGSUB   5        0   19.58984E+02 0.000E+00 0.000E+00 0.133E+01 0.400E+00 0.193E+03 0.000E+00 0.609E-06 0.309E-01 0.430E-01 0.500E-12 0.612E-09 0.612E-09 0.612E-09 0.612E-09 0.122E-08 0.121E-01 0.868E-04 0.389E-04 .00000E+00 0.000E+00 0.000E+00
BIGSUB   1        0   20.76460E+02 0.000E+00 0.000E+00 0.156E+01 0.457E+00 0.164E+03 0.000E+00 0.603E-06 0.445E-01 0.957E-01 0.671E-12 0.606E-09 0.606E-09 0.606E-09 0.606E-09 0.121E-08 0.512E-01 0.736E-03 0.510E-04 .00000E+00 0.000E+00 0.000E+00
BIGSUB   2        0   20.85095E+02 0.000E+00 0.000E+00 0.156E+01 0.496E+00 0.154E+03 0.000E+00 0.743E-06 0.426E-01 0.821E-01 0.725E-12 0.747E-09 0.747E-09 0.747E-09 0.747E-09 0.149E-08 0.396E-01 0.511E-03 0.643E-04 .00000E+00 0.000E+00 0.000E+00
BIGSUB   3        0   20.34257E+02 0.000E+00 0.000E+00 0.155E+01 0.523E+00 0.212E+03 0.000E+00 0.960E-04 0.326E-01 0.485E-01 0.287E-07 0.418E-06 0.673E-07 0.178E-05 0.284E-07 0.253E-08 0.158E-01 0.220E-03 0.383E-04 .00000E+00 0.000E+00 0.000E+00
BIGSUB   4        0   20.36293E+02 0.000E+00 0.000E+00 0.155E+01 0.483E+00 0.280E+03 0.000E+00 0.887E-04 0.356E-01 0.677E-01 0.264E-07 0.442E-06 0.709E-07 0.160E-05 0.291E-07 0.202E-08 0.320E-01 0.324E-03 0.648E-04 .00000E+00 0.000E+00 0.000E+00
BIGSUB   5        0   20.58984E+02 0.000E+00 0.000E+00 0.154E+01 0.499E+00 0.192E+03 0.000E+00 0.609E-06 0.300E-01 0.411E-01 0.500E-12 0.612E-09 0.612E-09 0.612E-09 0.612E-09 0.122E-08 0.111E-01 0.764E-04 0.378E-04 .00000E+00 0.000E+00 0.000E+00
BIGSUB   1        0   21.76460E+02 0.000E+00 0.000E+00 0.106E+01 0.301E+00 0.163E+03 0.000E+00 0.603E-06 0.432E-01 0.921E-01 0.646E-12 0.606E-09 0.606E-09 0.606E-09 0.606E-09 0.121E-08 0.489E-01 0.703E-03 0.495E-04 .00000E+00 0.000E+00 0.000E+00
BIGSUB   2        0   21.85095E+02 0.000E+00 0.000E+00 0.106E+01 0.325E+00 0.154E+03 0.000E+00 0.743E-06 0.414E-01 0.791E-01 0.725E-12 0.747E-09 0.747E-09 0.747E-09 0.747E-09 0.149E-08 0.377E-01 0.487E-03 0.625E-04 .00000E+00 0.000E+00 0.000E+00
BIGSUB   3        0   21.34257E+02 0.000E+00 0.000E+00 0.105E+01 0.340E+00 0.211E+03 0.000E+00 0.784E-04 0.317E-01 0.465E-01 0.234E-07 0.341E-06 0.550E-07 0.145E-05 0.233E-07 0.237E-08 0.147E-01 0.203E-03 0.371E-04 .00000E+00 0.000E+00 0.000E+00
BIGSUB   4        0   21.36293E+02 0.000E+00 0.000E+00 0.105E+01 0.308E+00 0.280E+03 0.000E+00 0.752E-04 0.346E-01 0.646E-01 0.224E-07 0.374E-06 0.602E-07 0.136E-05 0.248E-07 0.198E-08 0.299E-01 0.301E-03 0.629E-04 .00000E+00 0.000E+00 0.000E+00
BIGSUB   5        0   21.58984E+02 0.000E+00 0.000E+00 0.105E+01 0.322E+00 0.192E+03 0.000E+00 0.609E-06 0.292E-01 0.393E-01 0.500E-12 0.612E-09 0.612E-09 0.612E-09 0.612E-09 0.122E-08 0.101E-01 0.677E-04 0.367E-04 .00000E+00 0.000E+00 0.000E+00
BIGSUB   1        0   22.76460E+02 0.000E+00 0.000E+00 0.978E+00 0.276E+00 0.163E+03 0.000E+00 0.603E-06 0.420E-01 0.888E-01 0.646E-12 0.606E-09 0.606E-09 0.606E-09 0.606E-09 0.121E-08 0.467E-01 0.672E-03 0.480E-04 .00000E+00 0.000E+00 0.000E+00
BIGSUB   2        0   22.85095E+02 0.000E+00 0.000E+00 0.977E+00 0.297E+00 0.153E+03 0.000E+00 0.743E-06 0.402E-01 0.762E-01 0.725E-12 0.747E-09 0.747E-09 0.747E-09 0.747E-09 0.149E-08 0.360E-01 0.464E-03 0.606E-04 .00000E+00 0.000E+00 0.000E+00
BIGSUB   3        0   22.34257E+02 0.000E+00 0.000E+00 0.968E+00 0.307E+00 0.211E+03 0.000E+00 0.641E-04 0.309E-01 0.446E-01 0.191E-07 0.278E-06 0.450E-07 0.118E-05 0.191E-07 0.223E-08 0.137E-01 0.188E-03 0.361E-04 .00000E+00 0.000E+00 0.000E+00
BIGSUB   4        0   22.36293E+02 0.000E+00 0.000E+00 0.970E+00 0.274E+00 0.280E+03 0.000E+00 0.639E-04 0.337E-01 0.618E-01 0.189E-07 0.317E-06 0.511E-07 0.115E-05 0.211E-07 0.195E-08 0.281E-01 0.280E-03 0.610E-04 .00000E+00 0.000E+00 0.000E+00
BIGSUB   5        0   22.58984E+02 0.000E+00 0.000E+00 0.966E+00 0.291E+00 0.192E+03 0.000E+00 0.609E-06 0.284E-01 0.377E-01 0.500E-12 0.612E-09 0.612E-09 0.612E-09 0.612E-09 0.122E-08 0.931E-02 0.604E-04 0.356E-04 .00000E+00 0.000E+00 0.000E+00
BIGSUB   1        0   23.76460E+02 0.000E+00 0.000E+00 0.151E+01 0.431E+00 0.163E+03 0.000E+00 0.603E-06 0.409E-01 0.855E-01 0.646E-12 0.606E-09 0.606E-09 0.606E-09 0.606E-09 0.121E-08 0.446E-01 0.642E-03 0.466E-04 .00000E+00 0.000E+00 0.000E+00
BIGSUB   2        0   23.85095E+02 0.000E+00 0.000E+00 0.151E+01 0.462E+00 0.153E+03 0.000E+00 0.743E-06 0.391E-01 0.735E-01 0.725E-12 0.747E-09 0.747E-09 0.747E-09 0.747E-09 0.149E-08 0.344E-01 0.443E-03 0.589E-04 .00000E+00 0.000E+00 0.000E+00
BIGSUB   3        0   23.34257E+02 0.000E+00 0.000E+00 0.150E+01 0.479E+00 0.210E+03 0.000E+00 0.524E-04 0.300E-01 0.429E-01 0.156E-07 0.227E-06 0.368E-07 0.963E-06 0.157E-07 0.213E-08 0.128E-01 0.174E-03 0.350E-04 .00000E+00 0.000E+00 0.000E+00
BIGSUB   4        0   23.36293E+02 0.000E+00 0.000E+00 0.150E+01 0.429E+00 0.279E+03 0.000E+00 0.542E-04 0.327E-01 0.592E-01 0.160E-07 0.269E-06 0.434E-07 0.973E-06 0.180E-07 0.192E-08 0.264E-01 0.261E-03 0.593E-04 .00000E+00 0.000E+00 0.000E+00
BIGSUB   5        0   23.58984E+02 0.000E+00 0.000E+00 0.149E+01 0.462E+00 0.191E+03 0.000E+00 0.609E-06 0.276E-01 0.362E-01 0.500E-12 0.612E-09 0.612E-09 0.612E-09 0.612E-09 0.122E-08 0.860E-02 0.541E-04 0.346E-04 .00000E+00 0.000E+00 0.000E+00
BIGSUB   1        0   24.76460E+02 0.261E+01 0.000E+00 0.985E+00 0.408E+00 0.165E+03 0.000E+00 0.122E-03 0.399E-01 0.903E-01 0.968E-05 0.988E-04 0.194E-04 0.852E-03 0.689E-05 0.121E-08 0.504E-01 0.113E-02 0.454E-04 .64149E-05 0.000E+00 0.380E-03
BIGSUB   2        0   24.85095E+02 0.000E+00 0.000E+00 0.118E+01 0.352E+00 0.152E+03 0.000E+00 0.743E-06 0.381E-01 0.709E-01 0.725E-12 0.747E-09 0.747E-09 0.747E-09 0.747E-09 0.149E-08 0.329E-01 0.423E-03 0.572E-04 .00000E+00 0.000E+00 0.000E+00
BIGSUB   3        0   24.34257E+02 0.000E+00 0.000E+00 0.117E+01 0.357E+00 0.210E+03 0.000E+00 0.428E-04 0.292E-01 0.413E-01 0.127E-07 0.185E-06 0.302E-07 0.785E-06 0.130E-07 0.204E-08 0.120E-01 0.162E-03 0.340E-04 .00000E+00 0.000E+00 0.000E+00
BIGSUB   4        0   24.36293E+02 0.000E+00 0.000E+00 0.117E+01 0.314E+00 0.279E+03 0.000E+00 0.460E-04 0.319E-01 0.568E-01 0.136E-07 0.228E-06 0.369E-07 0.824E-06 0.154E-07 0.190E-08 0.249E-01 0.244E-03 0.575E-04 .00000E+00 0.000E+00 0.000E+00