1
    SWAT Jun 01 2011    VER 2009/Rev. 481                                                                0/ 0/   0      0: 0: 0

    General Input/Output section (file.cio):                                        
    2013-7-14 00:00:00 ARCGIS-SWAT interface AV                                     
                                                                                    


       RCH      GIS   MON     AREAkm2  FLOW_INcms FLOW_OUTcms     EVAPcms    TLOSScms  SED_INtons SED_OUTtonsSEDCONCmg/kg   ORGN_INkg  ORGN_OUTkg   ORGP_INkg  ORGP_OUTkg    NO3_INkg   NO3_OUTkg    NH4_INkg   NH4_OUTkg    NO2_INkg   NO2_OUTkg   MINP_INkg  MINP_OUTkg   CHLA_INkg  CHLA_OUTkg   CBOD_INkg  CBOD_OUTkg  DISOX_INkg DISOX_OUTkg SOLPST_INmgSOLPST_OUTmg SORPST_INmgSORPST_OUTmg  REACTPSTmg    VOLPSTmg  SETTLPSTmgRESUSP_PSTmgDIFFUSEPSTmgREACBEDPSTmg   BURYPSTmg   BED_PSTmg BACTP_OUTctBACTLP_OUTct  CMETAL#1kg  CMETAL#2kg  CMETAL#3kg
REACH    1        0     1  0.7646E+02  0.2422E+00  0.2532E+00  0.0000E+00  0.2422E+00  0.5863E-03  0.5863E-03  0.2680E-01  0.4953E-02  0.4278E-02  0.6763E-03  0.5210E-03  0.2150E+02  0.2247E+02  0.0000E+00  0.0000E+00  0.0000E+00  0.0000E+00  0.2939E-03  0.9216E-03  0.0000E+00  0.0000E+00  0.0000E+00  0.0000E+00  0.0000E+00  0.6562E-01  0.0000E+00  0.0000E+00  0.0000E+00  0.0000E+00  0.0000E+00  0.0000E+00  0.0000E+00  0.0000E+00  0.0000E+00  0.0000E+00  0.0000E+00  0.0000E+00  0.0000E+00  0.0000E+00  0.0000E+00  0.0000E+00  0.0000E+00
REACH    2        0     1  0.8510E+02  0.2371E+00  0.2482E+00  0.0000E+00  0.2371E+00  0.3179E-05  0.3179E-05  0.1482E-03  0.6437E-05  0.0000E+00  0.1907E-04  0.0000E+00  0.2188E+02  0.2290E+02  0.0000E+00  0.0000E+00  0.0000E+00  0.0000E+00  0.1488E-04  0.0000E+00  0.0000E+00  0.0000E+00  0.0000E+00  0.0000E+00  0.0000E+00  0.6434E-01  0.0000E+00  0.0000E+00  0.0000E+00  0.0000E+00  0.0000E+00  0.0000E+00  0.0000E+00  0.0000E+00  0.0000E+00  0.0000E+00  0.0000E+00  0.0000E+00  0.0000E+00  0.0000E+00  0.0000E+00  0.0000E+00  0.0000E+00
REACH    3        0     1  0.1958E+03  0.5890E+00  0.6246E+00  0.0000E+00  0.5890E+00  0.5369E-02  0.4889E+00  0.9058E+01  0.7377E-01  0.6464E-01  0.1175E-01  0.9181E-02  0.5435E+02  0.5763E+02  0.0000E+00  0.0000E+00  0.0000E+00  0.0000E+00  0.5508E-02  0.1752E-01  0.0000E+00  0.0000E+00  0.0000E+00  0.0000E+00  0.1300E+00  0.4135E+00  0.0000E+00  0.0000E+00  0.0000E+00  0.0000E+00  0.0000E+00  0.0000E+00  0.0000E+00  0.0000E+00  0.0000E+00  0.0000E+00  0.0000E+00  0.0000E+00  0.0000E+00  0.0000E+00  0.0000E+00  0.0000E+00  0.0000E+00
REACH    4        0     1  0.3629E+02  0.1171E+00  0.1252E+00  0.0000E+00  0.1171E+00  0.2254E-02  0.2254E-02  0.2084E+00  0.3765E-01  0.3326E-01  0.6012E-02  0.4738E-02  0.1057E+02  0.1131E+02  0.0000E+00  0.0000E+00  0.0000E+00  0.0000E+00  0.2413E-02  0.7738E-02  0.0000E+00  0.0000E+00  0.0000E+00  0.0000E+00  0.0000E+00  0.3245E-01  0.0000E+00  0.0000E+00  0.0000E+00  0.0000E+00  0.0000E+00  0.0000E+00  0.0000E+00  0.0000E+00  0.0000E+00  0.0000E+00  0.0000E+00  0.0000E+00  0.0000E+00  0.0000E+00  0.0000E+00  0.0000E+00  0.0000E+00
REACH    5        0     1  0.2911E+03  0.9070E+00  0.9665E+00  0.0000E+00  0.9070E+00  0.4911E+00  0.9138E+00  0.1094E+02  0.9791E-01  0.8622E-01  0.1393E-01  0.1094E-01  0.8090E+02  0.8620E+02  0.0000E+00  0.0000E+00  0.0000E+00  0.0000E+00  0.2531E-01  0.8090E-01  0.0000E+00  0.0000E+00  0.0000E+00  0.0000E+00  0.4459E+00  0.1426E+01  0.0000E+00  0.0000E+00  0.0000E+00  0.0000E+00  0.0000E+00  0.0000E+00  0.0000E+00  0.0000E+00  0.0000E+00  0.0000E+00  0.0000E+00  0.0000E+00  0.0000E+00  0.0000E+00  0.0000E+00  0.0000E+00  0.0000E+00
REACH    1        0     2  0.7646E+02  0.2214E+00  0.2295E+00  0.0000E+00  0.2214E+00  0.2781E-03  0.2781E-03  0.1402E-01  0.2430E-02  0.2095E-02  0.3333E-03  0.2574E-03  0.1931E+02  0.2003E+02  0.0000E+00  0.0000E+00  0.0000E+00  0.0000E+00  0.1396E-03  0.4342E-03  0.0000E+00  0.0000E+00  0.0000E+00  0.0000E+00  0.0000E+00  0.5950E-01  0.0000E+00  0.0000E+00  0.0000E+00  0.0000E+00  0.0000E+00  0.0000E+00  0.0000E+00  0.0000E+00  0.0000E+00  0.0000E+00  0.0000E+00  0.0000E+00  0.0000E+00  0.0000E+00  0.0000E+00  0.0000E+00  0.0000E+00
REACH    2        0     2  0.8510E+02  0.2159E+00  0.2247E+00  0.0000E+00  0.2159E+00  0.8044E-06  0.8044E-06  0.4144E-04  0.6357E-05  0.0000E+00  0.1907E-04  0.0000E+00  0.1923E+02  0.2001E+02  0.0000E+00  0.0000E+00  0.0000E+00  0.0000E+00  0.7659E-05  0.0000E+00  0.0000E+00  0.0000E+00  0.0000E+00  0.0000E+00  0.0000E+00  0.5823E-01  0.0000E+00  0.0000E+00  0.0000E+00  0.0000E+00  0.0000E+00  0.0000E+00  0.0000E+00  0.0000E+00  0.0000E+00  0.0000E+00  0.0000E+00  0.0000E+00  0.0000E+00  0.0000E+00  0.0000E+00  0.0000E+00  0.0000E+00
REACH    3        0     2  0.1958E+03  0.5310E+00  0.5639E+00  0.0000E+00  0.5310E+00  0.4172E-02  0.4408E+00  0.9047E+01  0.5869E-01  0.5181E-01  0.9403E-02  0.7438E-02  0.4763E+02  0.5057E+02  0.0000E+00  0.0000E+00  0.0000E+00  0.0000E+00  0.4171E-02  0.1329E-01  0.0000E+00  0.0000E+00  0.0000E+00  0.0000E+00  0.1177E+00  0.3751E+00  0.0000E+00  0.0000E+00  0.0000E+00  0.0000E+00  0.0000E+00  0.0000E+00  0.0000E+00  0.0000E+00  0.0000E+00  0.0000E+00  0.0000E+00  0.0000E+00  0.0000E+00  0.0000E+00  0.0000E+00  0.0000E+00  0.0000E+00
REACH    4        0     2  0.3629E+02  0.1050E+00  0.1118E+00  0.0000E+00  0.1050E+00  0.1909E-02  0.1909E-02  0.1976E+00  0.3188E-01  0.2822E-01  0.5093E-02  0.4039E-02  0.9214E+01  0.9809E+01  0.0000E+00  0.0000E+00  0.0000E+00  0.0000E+00  0.2044E-02  0.6527E-02  0.0000E+00  0.0000E+00  0.0000E+00  0.0000E+00  0.0000E+00  0.2898E-01  0.0000E+00  0.0000E+00  0.0000E+00  0.0000E+00  0.0000E+00  0.0000E+00  0.0000E+00  0.0000E+00  0.0000E+00  0.0000E+00  0.0000E+00  0.0000E+00  0.0000E+00  0.0000E+00  0.0000E+00  0.0000E+00  0.0000E+00
REACH    5        0     2  0.2911E+03  0.8108E+00  0.8649E+00  0.0000E+00  0.8108E+00  0.4427E+00  0.7310E+00  0.9782E+01  0.8003E-01  0.7098E-01  0.1149E-01  0.9129E-02  0.7025E+02  0.7494E+02  0.0000E+00  0.0000E+00  0.0000E+00  0.0000E+00  0.1984E-01  0.6349E-01  0.0000E+00  0.0000E+00  0.0000E+00  0.0000E+00  0.4040E+00  0.1293E+01  0.0000E+00  0.0000E+00  0.0000E+00  0.0000E+00  0.0000E+00  0.0000E+00  0.0000E+00  0.0000E+00  0.0000E+00  0.0000E+00  0.0000E+00  0.0000E+00  0.0000E+00  0.0000E+00  0.0000E+00  0.0000E+00  0.0000E+00
REACH    1        0     3  0.7646E+02  0.2036E+00  0.2091E+00  0.0000E+00  0.2036E+00  0.1330E-03  0.1330E-03  0.7364E-02  0.1194E-02  0.1008E-02  0.1668E-03  0.1252E-03  0.1747E+02  0.1794E+02  0.0000E+00  0.0000E+00  0.0000E+00  0.0000E+00  0.6707E-04  0.2066E-03  0.0000E+00  0.0000E+00  0.0000E+00  0.0000E+00  0.0000E+00  0.5420E-01  0.0000E+00  0.0000E+00  0.0000E+00  0.0000E+00  0.0000E+00  0.0000E+00  0.0000E+00  0.0000E+00  0.0000E+00  0.0000E+00  0.0000E+00  0.0000E+00  0.0000E+00  0.0000E+00  0.0000E+00  0.0000E+00  0.0000E+00
REACH    2        0     3  0.8510E+02  0.1978E+00  0.2041E+00  0.0000E+00  0.1978E+00  0.2066E-06  0.2066E-06  0.1171E-04  0.6357E-05  0.0000E+00  0.1907E-04  0.0000E+00  0.1702E+02  0.1756E+02  0.0000E+00  0.0000E+00  0.0000E+00  0.0000E+00  0.6365E-05  0.0000E+00  0.0000E+00  0.0000E+00  0.0000E+00  0.0000E+00  0.0000E+00  0.5290E-01  0.0000E+00  0.0000E+00  0.0000E+00  0.0000E+00  0.0000E+00  0.0000E+00  0.0000E+00  0.0000E+00  0.0000E+00  0.0000E+00  0.0000E+00  0.0000E+00  0.0000E+00  0.0000E+00  0.0000E+00  0.0000E+00  0.0000E+00
REACH    3        0     3  0.1958E+03  0.4809E+00  0.5092E+00  0.0000E+00  0.4809E+00  0.3306E-02  0.3977E+00  0.9039E+01  0.4713E-01  0.4104E-01  0.7581E-02  0.5866E-02  0.4194E+02  0.4441E+02  0.0000E+00  0.0000E+00  0.0000E+00  0.0000E+00  0.3253E-02  0.1033E-01  0.0000E+00  0.0000E+00  0.0000E+00  0.0000E+00  0.1071E+00  0.3402E+00  0.0000E+00  0.0000E+00  0.0000E+00  0.0000E+00  0.0000E+00  0.0000E+00  0.0000E+00  0.0000E+00  0.0000E+00  0.0000E+00  0.0000E+00  0.0000E+00  0.0000E+00  0.0000E+00  0.0000E+00  0.0000E+00  0.0000E+00
REACH    4        0     3  0.3629E+02  0.9455E-01  0.1001E+00  0.0000E+00  0.9455E-01  0.1616E-02  0.1616E-02  0.1870E+00  0.2700E-01  0.2350E-01  0.4314E-02  0.3337E-02  0.8051E+01  0.8520E+01  0.0000E+00  0.0000E+00  0.0000E+00  0.0000E+00  0.1731E-02  0.5497E-02  0.0000E+00  0.0000E+00  0.0000E+00  0.0000E+00  0.0000E+00  0.2594E-01  0.0000E+00  0.0000E+00  0.0000E+00  0.0000E+00  0.0000E+00  0.0000E+00  0.0000E+00  0.0000E+00  0.0000E+00  0.0000E+00  0.0000E+00  0.0000E+00  0.0000E+00  0.0000E+00  0.0000E+00  0.0000E+00  0.0000E+00
REACH    5        0     3  0.2911E+03  0.7263E+00  0.7731E+00  0.0000E+00  0.7263E+00  0.3993E+00  0.5853E+00  0.8763E+01  0.6455E-01  0.5650E-01  0.9213E-02  0.7166E-02  0.6110E+02  0.6503E+02  0.0000E+00  0.0000E+00  0.0000E+00  0.0000E+00  0.1584E-01  0.5059E-01  0.0000E+00  0.0000E+00  0.0000E+00  0.0000E+00  0.3662E+00  0.1169E+01  0.0000E+00  0.0000E+00  0.0000E+00  0.0000E+00  0.0000E+00  0.0000E+00  0.0000E+00  0.0000E+00  0.0000E+00  0.0000E+00  0.0000E+00  0.0000E+00  0.0000E+00  0.0000E+00  0.0000E+00  0.0000E+00  0.0000E+00
REACH    1        0     4  0.7646E+02  0.1884E+00  0.1909E+00  0.0000E+00  0.1884E+00  0.6405E-04  0.6405E-04  0.3882E-02  0.5868E-03  0.4821E-03  0.8663E-04  0.6254E-04  0.1590E+02  0.1611E+02  0.0000E+00  0.0000E+00  0.0000E+00  0.0000E+00  0.3269E-04  0.9938E-04  0.0000E+00  0.0000E+00  0.0000E+00  0.0000E+00  0.0000E+00  0.4949E-01  0.0000E+00  0.0000E+00  0.0000E+00  0.0000E+00  0.0000E+00  0.0000E+00  0.0000E+00  0.0000E+00  0.0000E+00  0.0000E+00  0.0000E+00  0.0000E+00  0.0000E+00  0.0000E+00  0.0000E+00  0.0000E+00  0.0000E+00
REACH    2        0     4  0.8510E+02  0.1825E+00  0.1859E+00  0.0000E+00  0.1825E+00  0.5605E-07  0.5605E-07  0.3490E-05  0.6357E-05  0.0000E+00  0.1907E-04  0.0000E+00  0.1517E+02  0.1546E+02  0.0000E+00  0.0000E+00  0.0000E+00  0.0000E+00  0.6365E-05  0.0000E+00  0.0000E+00  0.0000E+00  0.0000E+00  0.0000E+00  0.0000E+00  0.4818E-01  0.0000E+00  0.0000E+00  0.0000E+00  0.0000E+00  0.0000E+00  0.0000E+00  0.0000E+00  0.0000E+00  0.0000E+00  0.0000E+00  0.0000E+00  0.0000E+00  0.0000E+00  0.0000E+00  0.0000E+00  0.0000E+00  0.0000E+00
REACH    3        0     4  0.1958E+03  0.4370E+00  0.4603E+00  0.0000E+00  0.4370E+00  0.2651E-02  0.3592E+00  0.9032E+01  0.3808E-01  0.3253E-01  0.6142E-02  0.4609E-02  0.3708E+02  0.3906E+02  0.0000E+00  0.0000E+00  0.0000E+00  0.0000E+00  0.2583E-02  0.8164E-02  0.0000E+00  0.0000E+00  0.0000E+00  0.0000E+00  0.9768E-01  0.3087E+00  0.0000E+00  0.0000E+00  0.0000E+00  0.0000E+00  0.0000E+00  0.0000E+00  0.0000E+00  0.0000E+00  0.0000E+00  0.0000E+00  0.0000E+00  0.0000E+00  0.0000E+00  0.0000E+00  0.0000E+00  0.0000E+00  0.0000E+00
REACH    4        0     4  0.3629E+02  0.8550E-01  0.8974E-01  0.0000E+00  0.8550E-01  0.1369E-02  0.1369E-02  0.1766E+00  0.2287E-01  0.1946E-01  0.3655E-02  0.2733E-02  0.7056E+01  0.7405E+01  0.0000E+00  0.0000E+00  0.0000E+00  0.0000E+00  0.1467E-02  0.4618E-02  0.0000E+00  0.0000E+00  0.0000E+00  0.0000E+00  0.0000E+00  0.2326E-01  0.0000E+00  0.0000E+00  0.0000E+00  0.0000E+00  0.0000E+00  0.0000E+00  0.0000E+00  0.0000E+00  0.0000E+00  0.0000E+00  0.0000E+00  0.0000E+00  0.0000E+00  0.0000E+00  0.0000E+00  0.0000E+00  0.0000E+00
REACH    5        0     4  0.2911E+03  0.6521E+00  0.6906E+00  0.0000E+00  0.6521E+00  0.3606E+00  0.9390E+00  0.1574E+02  0.5199E-01  0.4464E-01  0.7354E-02  0.5548E-02  0.5324E+02  0.5638E+02  0.0000E+00  0.0000E+00  0.0000E+00  0.0000E+00  0.1279E-01  0.4063E-01  0.0000E+00  0.0000E+00  0.0000E+00  0.0000E+00  0.3319E+00  0.1055E+01  0.0000E+00  0.0000E+00  0.0000E+00  0.0000E+00  0.0000E+00  0.0000E+00  0.0000E+00  0.0000E+00  0.0000E+00  0.0000E+00  0.0000E+00  0.0000E+00  0.0000E+00  0.0000E+00  0.0000E+00  0.0000E+00  0.0000E+00
REACH    1        0     5  0.7646E+02  0.1753E+00  0.1765E+00  0.0000E+00  0.1753E+00  0.3098E-04  0.3098E-04  0.2031E-02  0.2893E-03  0.2325E-03  0.4757E-04  0.3317E-04  0.1456E+02  0.1467E+02  0.0000E+00  0.0000E+00  0.0000E+00  0.0000E+00  0.1697E-04  0.5126E-04  0.0000E+00  0.0000E+00  0.0000E+00  0.0000E+00  0.0000E+00  0.4576E-01  0.0000E+00  0.0000E+00  0.0000E+00  0.0000E+00  0.0000E+00  0.0000E+00  0.0000E+00  0.0000E+00  0.0000E+00  0.0000E+00  0.0000E+00  0.0000E+00  0.0000E+00  0.0000E+00  0.0000E+00  0.0000E+00  0.0000E+00
REACH    2        0     5  0.8510E+02  0.1693E+00  0.1713E+00  0.0000E+00  0.1693E+00  0.1816E-07  0.1816E-07  0.1227E-05  0.6357E-05  0.0000E+00  0.1907E-04  0.0000E+00  0.1363E+02  0.1380E+02  0.0000E+00  0.0000E+00  0.0000E+00  0.0000E+00  0.6365E-05  0.0000E+00  0.0000E+00  0.0000E+00  0.0000E+00  0.0000E+00  0.0000E+00  0.4441E-01  0.0000E+00  0.0000E+00  0.0000E+00  0.0000E+00  0.0000E+00  0.0000E+00  0.0000E+00  0.0000E+00  0.0000E+00  0.0000E+00  0.0000E+00  0.0000E+00  0.0000E+00  0.0000E+00  0.0000E+00  0.0000E+00  0.0000E+00
REACH    3        0     5  0.1958E+03  0.4017E+00  0.4203E+00  0.0000E+00  0.4017E+00  0.2140E-02  0.3278E+00  0.9026E+01  0.3088E-01  0.2579E-01  0.4990E-02  0.3616E-02  0.3319E+02  0.3473E+02  0.0000E+00  0.0000E+00  0.0000E+00  0.0000E+00  0.2077E-02  0.6519E-02  0.0000E+00  0.0000E+00  0.0000E+00  0.0000E+00  0.9017E-01  0.2831E+00  0.0000E+00  0.0000E+00  0.0000E+00  0.0000E+00  0.0000E+00  0.0000E+00  0.0000E+00  0.0000E+00  0.0000E+00  0.0000E+00  0.0000E+00  0.0000E+00  0.0000E+00  0.0000E+00  0.0000E+00  0.0000E+00  0.0000E+00
REACH    4        0     5  0.3629E+02  0.7765E-01  0.8110E-01  0.0000E+00  0.7765E-01  0.1159E-02  0.1159E-02  0.1654E+00  0.1937E-01  0.1614E-01  0.3097E-02  0.2240E-02  0.6203E+01  0.6479E+01  0.0000E+00  0.0000E+00  0.0000E+00  0.0000E+00  0.1243E-02  0.3893E-02  0.0000E+00  0.0000E+00  0.0000E+00  0.0000E+00  0.0000E+00  0.2102E-01  0.0000E+00  0.0000E+00  0.0000E+00  0.0000E+00  0.0000E+00  0.0000E+00  0.0000E+00  0.0000E+00  0.0000E+00  0.0000E+00  0.0000E+00  0.0000E+00  0.0000E+00  0.0000E+00  0.0000E+00  0.0000E+00  0.0000E+00
REACH    5        0     5  0.2911E+03  0.5911E+00  0.6223E+00  0.0000E+00  0.5911E+00  0.3290E+00  0.7669E+00  0.1426E+02  0.4194E-01  0.3524E-01  0.5866E-02  0.4276E-02  0.4684E+02  0.4931E+02  0.0000E+00  0.0000E+00  0.0000E+00  0.0000E+00  0.1042E-01  0.3290E-01  0.0000E+00  0.0000E+00  0.0000E+00  0.0000E+00  0.3041E+00  0.9604E+00  0.0000E+00  0.0000E+00  0.0000E+00  0.0000E+00  0.0000E+00  0.0000E+00  0.0000E+00  0.0000E+00  0.0000E+00  0.0000E+00  0.0000E+00  0.0000E+00  0.0000E+00  0.0000E+00  0.0000E+00  0.0000E+00  0.0000E+00
REACH    1        0     6  0.7646E+02  0.1639E+00  0.1648E+00  0.0000E+00  0.1639E+00  0.1505E-04  0.1505E-04  0.1057E-02  0.1436E-03  0.1152E-03  0.2939E-04  0.2042E-04  0.1341E+02  0.1349E+02  0.0000E+00  0.0000E+00  0.0000E+00  0.0000E+00  0.9649E-05  0.0000E+00  0.0000E+00  0.0000E+00  0.0000E+00  0.0000E+00  0.0000E+00  0.4272E-01  0.0000E+00  0.0000E+00  0.0000E+00  0.0000E+00  0.0000E+00  0.0000E+00  0.0000E+00  0.0000E+00  0.0000E+00  0.0000E+00  0.0000E+00  0.0000E+00  0.0000E+00  0.0000E+00  0.0000E+00  0.0000E+00  0.0000E+00
REACH    2        0     6  0.8510E+02  0.1578E+00  0.1595E+00  0.0000E+00  0.1578E+00  0.8627E-08  0.8627E-08  0.6261E-06  0.6357E-05  0.0000E+00  0.1907E-04  0.0000E+00  0.1232E+02  0.1245E+02  0.0000E+00  0.0000E+00  0.0000E+00  0.0000E+00  0.6365E-05  0.0000E+00  0.0000E+00  0.0000E+00  0.0000E+00  0.0000E+00  0.0000E+00  0.4134E-01  0.0000E+00  0.0000E+00  0.0000E+00  0.0000E+00  0.0000E+00  0.0000E+00  0.0000E+00  0.0000E+00  0.0000E+00  0.0000E+00  0.0000E+00  0.0000E+00  0.0000E+00  0.0000E+00  0.0000E+00  0.0000E+00  0.0000E+00
REACH    3        0     6  0.1958E+03  0.3728E+00  0.3879E+00  0.0000E+00  0.3728E+00  0.1734E-02  0.3009E+00  0.8980E+01  0.2510E-01  0.2082E-01  0.4063E-02  0.2921E-02  0.3001E+02  0.3123E+02  0.0000E+00  0.0000E+00  0.0000E+00  0.0000E+00  0.1651E-02  0.5155E-02  0.0000E+00  0.0000E+00  0.0000E+00  0.0000E+00  0.8406E-01  0.2624E+00  0.0000E+00  0.0000E+00  0.0000E+00  0.0000E+00  0.0000E+00  0.0000E+00  0.0000E+00  0.0000E+00  0.0000E+00  0.0000E+00  0.0000E+00  0.0000E+00  0.0000E+00  0.0000E+00  0.0000E+00  0.0000E+00  0.0000E+00
REACH    4        0     6  0.3629E+02  0.7083E-01  0.7380E-01  0.0000E+00  0.7083E-01  0.9818E-03  0.9818E-03  0.1540E+00  0.1640E-01  0.1362E-01  0.2624E-02  0.1889E-02  0.5472E+01  0.5701E+01  0.0000E+00  0.0000E+00  0.0000E+00  0.0000E+00  0.1053E-02  0.3291E-02  0.0000E+00  0.0000E+00  0.0000E+00  0.0000E+00  0.0000E+00  0.1913E-01  0.0000E+00  0.0000E+00  0.0000E+00  0.0000E+00  0.0000E+00  0.0000E+00  0.0000E+00  0.0000E+00  0.0000E+00  0.0000E+00  0.0000E+00  0.0000E+00  0.0000E+00  0.0000E+00  0.0000E+00  0.0000E+00  0.0000E+00
REACH    5        0     6  0.2911E+03  0.5410E+00  0.5665E+00  0.0000E+00  0.5410E+00  0.3019E+00  0.6390E+00  0.1306E+02  0.3445E-01  0.2875E-01  0.4821E-02  0.3487E-02  0.4163E+02  0.4359E+02  0.0000E+00  0.0000E+00  0.0000E+00  0.0000E+00  0.8449E-02  0.2654E-01  0.0000E+00  0.0000E+00  0.0000E+00  0.0000E+00  0.2815E+00  0.8842E+00  0.0000E+00  0.0000E+00  0.0000E+00  0.0000E+00  0.0000E+00  0.0000E+00  0.0000E+00  0.0000E+00  0.0000E+00  0.0000E+00  0.0000E+00  0.0000E+00  0.0000E+00  0.0000E+00  0.0000E+00  0.0000E+00  0.0000E+00
REACH    1        0     7  0.7646E+02  0.1539E+00  0.1521E+00  0.0000E+00  0.1539E+00  0.7331E-05  0.7331E-05  0.5578E-03  0.7197E-04  0.5468E-04  0.2046E-04  0.0000E+00  0.1242E+02  0.1227E+02  0.0000E+00  0.0000E+00  0.0000E+00  0.0000E+00  0.6047E-05  0.0000E+00  0.0000E+00  0.0000E+00  0.0000E+00  0.0000E+00  0.0000E+00  0.3943E-01  0.0000E+00  0.0000E+00  0.0000E+00  0.0000E+00  0.0000E+00  0.0000E+00  0.0000E+00  0.0000E+00  0.0000E+00  0.0000E+00  0.0000E+00  0.0000E+00  0.0000E+00  0.0000E+00  0.0000E+00  0.0000E+00  0.0000E+00
REACH    2        0     7  0.8510E+02  0.1479E+00  0.1469E+00  0.0000E+00  0.1479E+00  0.6226E-08  0.6226E-08  0.4904E-06  0.6357E-05  0.0000E+00  0.1907E-04  0.0000E+00  0.1122E+02  0.1115E+02  0.0000E+00  0.0000E+00  0.0000E+00  0.0000E+00  0.6365E-05  0.0000E+00  0.0000E+00  0.0000E+00  0.0000E+00  0.0000E+00  0.0000E+00  0.3809E-01  0.0000E+00  0.0000E+00  0.0000E+00  0.0000E+00  0.0000E+00  0.0000E+00  0.0000E+00  0.0000E+00  0.0000E+00  0.0000E+00  0.0000E+00  0.0000E+00  0.0000E+00  0.0000E+00  0.0000E+00  0.0000E+00  0.0000E+00
REACH    3        0     7  0.1958E+03  0.3430E+00  0.3552E+00  0.0000E+00  0.3430E+00  0.1408E-02  0.2536E+00  0.8263E+01  0.2042E-01  0.1626E-01  0.3297E-02  0.2204E-02  0.2695E+02  0.2791E+02  0.0000E+00  0.0000E+00  0.0000E+00  0.0000E+00  0.1347E-02  0.4184E-02  0.0000E+00  0.0000E+00  0.0000E+00  0.0000E+00  0.7752E-01  0.2408E+00  0.0000E+00  0.0000E+00  0.0000E+00  0.0000E+00  0.0000E+00  0.0000E+00  0.0000E+00  0.0000E+00  0.0000E+00  0.0000E+00  0.0000E+00  0.0000E+00  0.0000E+00  0.0000E+00  0.0000E+00  0.0000E+00  0.0000E+00
REACH    4        0     7  0.3629E+02  0.6488E-01  0.6678E-01  0.0000E+00  0.6488E-01  0.8315E-03  0.8315E-03  0.1441E+00  0.1389E-01  0.1099E-01  0.2224E-02  0.1478E-02  0.4844E+01  0.4986E+01  0.0000E+00  0.0000E+00  0.0000E+00  0.0000E+00  0.8920E-03  0.2755E-02  0.0000E+00  0.0000E+00  0.0000E+00  0.0000E+00  0.0000E+00  0.1731E-01  0.0000E+00  0.0000E+00  0.0000E+00  0.0000E+00  0.0000E+00  0.0000E+00  0.0000E+00  0.0000E+00  0.0000E+00  0.0000E+00  0.0000E+00  0.0000E+00  0.0000E+00  0.0000E+00  0.0000E+00  0.0000E+00  0.0000E+00
REACH    5        0     7  0.2911E+03  0.4928E+00  0.5120E+00  0.0000E+00  0.4928E+00  0.2544E+00  0.5261E+00  0.1189E+02  0.2725E-01  0.2176E-01  0.3693E-02  0.2477E-02  0.3684E+02  0.3827E+02  0.0000E+00  0.0000E+00  0.0000E+00  0.0000E+00  0.6942E-02  0.2164E-01  0.0000E+00  0.0000E+00  0.0000E+00  0.0000E+00  0.2581E+00  0.8046E+00  0.0000E+00  0.0000E+00  0.0000E+00  0.0000E+00  0.0000E+00  0.0000E+00  0.0000E+00  0.0000E+00  0.0000E+00  0.0000E+00  0.0000E+00  0.0000E+00  0.0000E+00  0.0000E+00  0.0000E+00  0.0000E+00  0.0000E+00
REACH    1        0     8  0.7646E+02  0.1451E+00  0.1406E+00  0.0000E+00  0.1451E+00  0.3581E-05  0.3581E-05  0.2948E-03  0.3671E-04  0.2733E-04  0.1607E-04  0.0000E+00  0.1155E+02  0.1119E+02  0.0000E+00  0.0000E+00  0.0000E+00  0.0000E+00  0.4638E-05  0.0000E+00  0.0000E+00  0.0000E+00  0.0000E+00  0.0000E+00  0.0000E+00  0.3645E-01  0.0000E+00  0.0000E+00  0.0000E+00  0.0000E+00  0.0000E+00  0.0000E+00  0.0000E+00  0.0000E+00  0.0000E+00  0.0000E+00  0.0000E+00  0.0000E+00  0.0000E+00  0.0000E+00  0.0000E+00  0.0000E+00  0.0000E+00
REACH    2        0     8  0.8510E+02  0.1391E+00  0.1357E+00  0.0000E+00  0.1391E+00  0.6167E-08  0.6167E-08  0.5261E-06  0.6357E-05  0.0000E+00  0.1907E-04  0.1199E-04  0.1027E+02  0.1002E+02  0.0000E+00  0.0000E+00  0.0000E+00  0.0000E+00  0.6365E-05  0.0000E+00  0.0000E+00  0.0000E+00  0.0000E+00  0.0000E+00  0.0000E+00  0.3517E-01  0.0000E+00  0.0000E+00  0.0000E+00  0.0000E+00  0.0000E+00  0.0000E+00  0.0000E+00  0.0000E+00  0.0000E+00  0.0000E+00  0.0000E+00  0.0000E+00  0.0000E+00  0.0000E+00  0.0000E+00  0.0000E+00  0.0000E+00
REACH    3        0     8  0.1958E+03  0.3164E+00  0.3252E+00  0.0000E+00  0.3164E+00  0.1146E-02  0.2142E+00  0.7621E+01  0.1663E-01  0.1313E-01  0.2701E-02  0.1791E-02  0.2428E+02  0.2496E+02  0.0000E+00  0.0000E+00  0.0000E+00  0.0000E+00  0.1098E-02  0.3387E-02  0.0000E+00  0.0000E+00  0.0000E+00  0.0000E+00  0.7161E-01  0.2208E+00  0.0000E+00  0.0000E+00  0.0000E+00  0.0000E+00  0.0000E+00  0.0000E+00  0.0000E+00  0.0000E+00  0.0000E+00  0.0000E+00  0.0000E+00  0.0000E+00  0.0000E+00  0.0000E+00  0.0000E+00  0.0000E+00  0.0000E+00
REACH    4        0     8  0.3629E+02  0.5967E-01  0.6056E-01  0.0000E+00  0.5967E-01  0.7042E-03  0.7042E-03  0.1346E+00  0.1176E-01  0.9173E-02  0.1885E-02  0.1234E-02  0.4305E+01  0.4369E+01  0.0000E+00  0.0000E+00  0.0000E+00  0.0000E+00  0.7559E-03  0.2302E-02  0.0000E+00  0.0000E+00  0.0000E+00  0.0000E+00  0.0000E+00  0.1570E-01  0.0000E+00  0.0000E+00  0.0000E+00  0.0000E+00  0.0000E+00  0.0000E+00  0.0000E+00  0.0000E+00  0.0000E+00  0.0000E+00  0.0000E+00  0.0000E+00  0.0000E+00  0.0000E+00  0.0000E+00  0.0000E+00  0.0000E+00
REACH    5        0     8  0.2911E+03  0.4495E+00  0.4625E+00  0.0000E+00  0.4495E+00  0.2149E+00  0.4334E+00  0.1085E+02  0.2231E-01  0.1764E-01  0.3036E-02  0.2015E-02  0.3265E+02  0.3360E+02  0.0000E+00  0.0000E+00  0.0000E+00  0.0000E+00  0.5692E-02  0.1757E-01  0.0000E+00  0.0000E+00  0.0000E+00  0.0000E+00  0.2365E+00  0.7302E+00  0.0000E+00  0.0000E+00  0.0000E+00  0.0000E+00  0.0000E+00  0.0000E+00  0.0000E+00  0.0000E+00  0.0000E+00  0.0000E+00  0.0000E+00  0.0000E+00  0.0000E+00  0.0000E+00  0.0000E+00  0.0000E+00  0.0000E+00
REACH    1        0     9  0.7646E+02  0.1372E+00  0.1341E+00  0.0000E+00  0.1372E+00  0.1753E-05  0.1753E-05  0.1514E-03  0.1936E-04  0.1438E-04  0.1391E-04  0.0000E+00  0.1079E+02  0.1054E+02  0.0000E+00  0.0000E+00  0.0000E+00  0.0000E+00  0.4638E-05  0.0000E+00  0.0000E+00  0.0000E+00  0.0000E+00  0.0000E+00  0.0000E+00  0.3475E-01  0.0000E+00  0.0000E+00  0.0000E+00  0.0000E+00  0.0000E+00  0.0000E+00  0.0000E+00  0.0000E+00  0.0000E+00  0.0000E+00  0.0000E+00  0.0000E+00  0.0000E+00  0.0000E+00  0.0000E+00  0.0000E+00  0.0000E+00
REACH    2        0     9  0.8510E+02  0.1314E+00  0.1290E+00  0.0000E+00  0.1314E+00  0.6167E-08  0.6167E-08  0.5532E-06  0.6357E-05  0.0000E+00  0.1907E-04  0.1184E-04  0.9462E+01  0.9290E+01  0.0000E+00  0.0000E+00  0.0000E+00  0.0000E+00  0.6365E-05  0.0000E+00  0.0000E+00  0.0000E+00  0.0000E+00  0.0000E+00  0.0000E+00  0.3344E-01  0.0000E+00  0.0000E+00  0.0000E+00  0.0000E+00  0.0000E+00  0.0000E+00  0.0000E+00  0.0000E+00  0.0000E+00  0.0000E+00  0.0000E+00  0.0000E+00  0.0000E+00  0.0000E+00  0.0000E+00  0.0000E+00  0.0000E+00
REACH    3        0     9  0.1958E+03  0.2999E+00  0.3059E+00  0.0000E+00  0.2999E+00  0.9328E-03  0.1909E+00  0.7224E+01  0.1355E-01  0.1051E-01  0.2205E-02  0.1422E-02  0.2252E+02  0.2297E+02  0.0000E+00  0.0000E+00  0.0000E+00  0.0000E+00  0.8959E-03  0.2741E-02  0.0000E+00  0.0000E+00  0.0000E+00  0.0000E+00  0.6819E-01  0.2086E+00  0.0000E+00  0.0000E+00  0.0000E+00  0.0000E+00  0.0000E+00  0.0000E+00  0.0000E+00  0.0000E+00  0.0000E+00  0.0000E+00  0.0000E+00  0.0000E+00  0.0000E+00  0.0000E+00  0.0000E+00  0.0000E+00  0.0000E+00
REACH    4        0     9  0.3629E+02  0.5511E-01  0.5607E-01  0.0000E+00  0.5511E-01  0.5964E-03  0.5964E-03  0.1231E+00  0.9963E-02  0.7706E-02  0.1598E-02  0.1028E-02  0.3839E+01  0.3906E+01  0.0000E+00  0.0000E+00  0.0000E+00  0.0000E+00  0.6407E-03  0.1956E-02  0.0000E+00  0.0000E+00  0.0000E+00  0.0000E+00  0.0000E+00  0.1453E-01  0.0000E+00  0.0000E+00  0.0000E+00  0.0000E+00  0.0000E+00  0.0000E+00  0.0000E+00  0.0000E+00  0.0000E+00  0.0000E+00  0.0000E+00  0.0000E+00  0.0000E+00  0.0000E+00  0.0000E+00  0.0000E+00  0.0000E+00
REACH    5        0     9  0.2911E+03  0.4196E+00  0.4293E+00  0.0000E+00  0.4196E+00  0.1915E+00  0.3756E+00  0.1013E+02  0.1822E-01  0.1417E-01  0.2461E-02  0.1592E-02  0.2969E+02  0.3037E+02  0.0000E+00  0.0000E+00  0.0000E+00  0.0000E+00  0.4700E-02  0.1443E-01  0.0000E+00  0.0000E+00  0.0000E+00  0.0000E+00  0.2232E+00  0.6850E+00  0.0000E+00  0.0000E+00  0.0000E+00  0.0000E+00  0.0000E+00  0.0000E+00  0.0000E+00  0.0000E+00  0.0000E+00  0.0000E+00  0.0000E+00  0.0000E+00  0.0000E+00  0.0000E+00  0.0000E+00  0.0000E+00  0.0000E+00
REACH    1        0    10  0.7646E+02  0.1302E+00  0.1255E+00  0.0000E+00  0.1302E+00  0.8607E-06  0.8607E-06  0.7935E-04  0.1082E-04  0.0000E+00  0.1389E-04  0.0000E+00  0.1011E+02  0.9752E+01  0.0000E+00  0.0000E+00  0.0000E+00  0.0000E+00  0.4638E-05  0.0000E+00  0.0000E+00  0.0000E+00  0.0000E+00  0.0000E+00  0.0000E+00  0.3254E-01  0.0000E+00  0.0000E+00  0.0000E+00  0.0000E+00  0.0000E+00  0.0000E+00  0.0000E+00  0.0000E+00  0.0000E+00  0.0000E+00  0.0000E+00  0.0000E+00  0.0000E+00  0.0000E+00  0.0000E+00  0.0000E+00  0.0000E+00
REACH    2        0    10  0.8510E+02  0.1245E+00  0.1242E+00  0.0000E+00  0.1245E+00  0.6167E-08  0.6167E-08  0.5745E-06  0.6357E-05  0.0000E+00  0.1907E-04  0.1212E-04  0.8761E+01  0.8741E+01  0.0000E+00  0.0000E+00  0.0000E+00  0.0000E+00  0.6365E-05  0.0000E+00  0.0000E+00  0.0000E+00  0.0000E+00  0.0000E+00  0.0000E+00  0.3220E-01  0.0000E+00  0.0000E+00  0.0000E+00  0.0000E+00  0.0000E+00  0.0000E+00  0.0000E+00  0.0000E+00  0.0000E+00  0.0000E+00  0.0000E+00  0.0000E+00  0.0000E+00  0.0000E+00  0.0000E+00  0.0000E+00  0.0000E+00
REACH    3        0    10  0.1958E+03  0.2836E+00  0.2903E+00  0.0000E+00  0.2836E+00  0.7599E-03  0.1713E+00  0.6831E+01  0.1103E-01  0.8621E-02  0.1802E-02  0.1175E-02  0.2087E+02  0.2136E+02  0.0000E+00  0.0000E+00  0.0000E+00  0.0000E+00  0.7308E-03  0.2245E-02  0.0000E+00  0.0000E+00  0.0000E+00  0.0000E+00  0.6474E-01  0.1988E+00  0.0000E+00  0.0000E+00  0.0000E+00  0.0000E+00  0.0000E+00  0.0000E+00  0.0000E+00  0.0000E+00  0.0000E+00  0.0000E+00  0.0000E+00  0.0000E+00  0.0000E+00  0.0000E+00  0.0000E+00  0.0000E+00  0.0000E+00
REACH    4        0    10  0.3629E+02  0.5094E-01  0.5236E-01  0.0000E+00  0.5094E-01  0.5050E-03  0.5050E-03  0.1116E+00  0.8438E-02  0.6618E-02  0.1355E-02  0.8867E-03  0.3438E+01  0.3534E+01  0.0000E+00  0.0000E+00  0.0000E+00  0.0000E+00  0.5431E-03  0.1674E-02  0.0000E+00  0.0000E+00  0.0000E+00  0.0000E+00  0.0000E+00  0.1357E-01  0.0000E+00  0.0000E+00  0.0000E+00  0.0000E+00  0.0000E+00  0.0000E+00  0.0000E+00  0.0000E+00  0.0000E+00  0.0000E+00  0.0000E+00  0.0000E+00  0.0000E+00  0.0000E+00  0.0000E+00  0.0000E+00  0.0000E+00
REACH    5        0    10  0.2911E+03  0.3952E+00  0.4050E+00  0.0000E+00  0.3952E+00  0.1718E+00  0.3337E+00  0.9538E+01  0.1524E-01  0.1192E-01  0.2073E-02  0.1353E-02  0.2729E+02  0.2796E+02  0.0000E+00  0.0000E+00  0.0000E+00  0.0000E+00  0.3923E-02  0.1206E-01  0.0000E+00  0.0000E+00  0.0000E+00  0.0000E+00  0.2124E+00  0.6529E+00  0.0000E+00  0.0000E+00  0.0000E+00  0.0000E+00  0.0000E+00  0.0000E+00  0.0000E+00  0.0000E+00  0.0000E+00  0.0000E+00  0.0000E+00  0.0000E+00  0.0000E+00  0.0000E+00  0.0000E+00  0.0000E+00  0.0000E+00
REACH    1        0    11  0.7646E+02  0.1238E+00  0.1171E+00  0.0000E+00  0.1238E+00  0.4239E-06  0.4239E-06  0.4189E-04  0.6620E-05  0.0000E+00  0.1389E-04  0.0000E+00  0.9511E+01  0.8998E+01  0.0000E+00  0.0000E+00  0.0000E+00  0.0000E+00  0.4638E-05  0.0000E+00  0.0000E+00  0.0000E+00  0.0000E+00  0.0000E+00  0.0000E+00  0.3036E-01  0.0000E+00  0.0000E+00  0.0000E+00  0.0000E+00  0.0000E+00  0.0000E+00  0.0000E+00  0.0000E+00  0.0000E+00  0.0000E+00  0.0000E+00  0.0000E+00  0.0000E+00  0.0000E+00  0.0000E+00  0.0000E+00  0.0000E+00
REACH    2        0    11  0.8510E+02  0.1183E+00  0.1140E+00  0.0000E+00  0.1183E+00  0.6167E-08  0.6167E-08  0.6261E-06  0.6357E-05  0.0000E+00  0.1907E-04  0.1107E-04  0.8150E+01  0.7851E+01  0.0000E+00  0.0000E+00  0.0000E+00  0.0000E+00  0.6365E-05  0.0000E+00  0.0000E+00  0.0000E+00  0.0000E+00  0.0000E+00  0.0000E+00  0.2955E-01  0.0000E+00  0.0000E+00  0.0000E+00  0.0000E+00  0.0000E+00  0.0000E+00  0.0000E+00  0.0000E+00  0.0000E+00  0.0000E+00  0.0000E+00  0.0000E+00  0.0000E+00  0.0000E+00  0.0000E+00  0.0000E+00  0.0000E+00
REACH    3        0    11  0.1958E+03  0.2627E+00  0.2670E+00  0.0000E+00  0.2627E+00  0.6192E-03  0.1460E+00  0.6328E+01  0.8995E-02  0.6781E-02  0.1472E-02  0.9013E-03  0.1895E+02  0.1926E+02  0.0000E+00  0.0000E+00  0.0000E+00  0.0000E+00  0.5963E-03  0.1818E-02  0.0000E+00  0.0000E+00  0.0000E+00  0.0000E+00  0.5991E-01  0.1827E+00  0.0000E+00  0.0000E+00  0.0000E+00  0.0000E+00  0.0000E+00  0.0000E+00  0.0000E+00  0.0000E+00  0.0000E+00  0.0000E+00  0.0000E+00  0.0000E+00  0.0000E+00  0.0000E+00  0.0000E+00  0.0000E+00  0.0000E+00