1
    SWAT Jun 01 2011    VER 2009/Rev. 481                                                                0/ 0/   0      0: 0: 0

    General Input/Output section (file.cio):                                        
    2013-7-14 00:00:00 ARCGIS-SWAT interface AV                                     
                                                                                    


       SUB      GIS  MON   AREAkm2  PRECIPmm SNOMELTmm     PETmm      ETmm      SWmm    PERCmm    SURQmm    GW_Qmm    WYLDmm  SYLDt/ha ORGNkg/ha ORGPkg/haNSURQkg/ha SOLPkg/ha SEDPkg/ha LAT Q(mm)LATNO3kg/hGWNO3kg/haCHOLAkg/haCBODUkg/ha DOXQkg/ha
BIGSUB   1        0    1.76460E+02 0.000E+00 0.000E+00 0.611E+00 0.175E+00 0.160E+03 0.000E+00 0.836E-06 0.000E+00 0.201E+00 0.184E-09 0.825E-09 0.606E-09 0.103E-07 0.606E-09 0.121E-08 0.201E+00 0.264E-02 0.100E-11 .00000E+00 0.000E+00 0.000E+00
BIGSUB   2        0    1.85095E+02 0.000E+00 0.000E+00 0.610E+00 0.190E+00 0.150E+03 0.000E+00 0.743E-06 0.000E+00 0.171E+00 0.725E-12 0.747E-09 0.747E-09 0.747E-09 0.747E-09 0.149E-08 0.171E+00 0.243E-02 0.100E-11 .00000E+00 0.000E+00 0.000E+00
BIGSUB   3        0    1.34257E+02 0.000E+00 0.000E+00 0.603E+00 0.225E+00 0.201E+03 0.000E+00 0.380E-02 0.000E+00 0.164E+00 0.135E-05 0.202E-04 0.323E-05 0.100E-03 0.129E-05 0.351E-07 0.160E+00 0.239E-02 0.100E-11 .00000E+00 0.000E+00 0.000E+00
BIGSUB   4        0    1.36293E+02 0.000E+00 0.000E+00 0.604E+00 0.220E+00 0.267E+03 0.000E+00 0.197E-02 0.000E+00 0.217E+00 0.620E-06 0.104E-04 0.165E-05 0.408E-04 0.659E-06 0.780E-08 0.215E+00 0.275E-02 0.100E-11 .00000E+00 0.000E+00 0.000E+00
BIGSUB   5        0    1.58984E+02 0.000E+00 0.000E+00 0.601E+00 0.176E+00 0.181E+03 0.000E+00 0.609E-06 0.000E+00 0.178E+00 0.500E-12 0.612E-09 0.612E-09 0.612E-09 0.612E-09 0.122E-08 0.178E+00 0.194E-02 0.100E-11 .00000E+00 0.000E+00 0.000E+00
BIGSUB   1        0    2.76460E+02 0.000E+00 0.000E+00 0.815E+00 0.248E+00 0.160E+03 0.000E+00 0.603E-06 0.000E+00 0.179E+00 0.735E-11 0.606E-09 0.606E-09 0.933E-09 0.606E-09 0.121E-08 0.179E+00 0.237E-02 0.100E-11 .00000E+00 0.000E+00 0.000E+00
BIGSUB   2        0    2.85095E+02 0.000E+00 0.000E+00 0.814E+00 0.269E+00 0.150E+03 0.000E+00 0.743E-06 0.000E+00 0.151E+00 0.725E-12 0.747E-09 0.747E-09 0.747E-09 0.747E-09 0.149E-08 0.151E+00 0.213E-02 0.100E-11 .00000E+00 0.000E+00 0.000E+00
BIGSUB   3        0    2.34257E+02 0.000E+00 0.000E+00 0.806E+00 0.314E+00 0.201E+03 0.000E+00 0.310E-02 0.000E+00 0.139E+00 0.110E-05 0.165E-04 0.263E-05 0.819E-04 0.105E-05 0.289E-07 0.135E+00 0.201E-02 0.100E-11 .00000E+00 0.000E+00 0.000E+00
BIGSUB   4        0    2.36293E+02 0.000E+00 0.000E+00 0.808E+00 0.305E+00 0.266E+03 0.000E+00 0.167E-02 0.000E+00 0.190E+00 0.525E-06 0.878E-05 0.140E-05 0.345E-04 0.558E-06 0.688E-08 0.188E+00 0.239E-02 0.100E-11 .00000E+00 0.000E+00 0.000E+00
BIGSUB   5        0    2.58984E+02 0.000E+00 0.000E+00 0.804E+00 0.252E+00 0.181E+03 0.000E+00 0.609E-06 0.000E+00 0.148E+00 0.500E-12 0.612E-09 0.612E-09 0.612E-09 0.612E-09 0.122E-08 0.148E+00 0.159E-02 0.100E-11 .00000E+00 0.000E+00 0.000E+00
BIGSUB   1        0    3.76460E+02 0.000E+00 0.000E+00 0.894E+00 0.273E+00 0.160E+03 0.000E+00 0.603E-06 0.000E+00 0.161E+00 0.646E-12 0.606E-09 0.606E-09 0.606E-09 0.606E-09 0.121E-08 0.161E+00 0.213E-02 0.100E-11 .00000E+00 0.000E+00 0.000E+00
BIGSUB   2        0    3.85095E+02 0.000E+00 0.000E+00 0.893E+00 0.297E+00 0.150E+03 0.000E+00 0.743E-06 0.000E+00 0.134E+00 0.725E-12 0.747E-09 0.747E-09 0.747E-09 0.747E-09 0.149E-08 0.134E+00 0.187E-02 0.100E-11 .00000E+00 0.000E+00 0.000E+00
BIGSUB   3        0    3.34257E+02 0.000E+00 0.000E+00 0.885E+00 0.349E+00 0.200E+03 0.000E+00 0.253E-02 0.000E+00 0.117E+00 0.894E-06 0.134E-04 0.214E-05 0.667E-04 0.857E-06 0.239E-07 0.115E+00 0.171E-02 0.100E-11 .00000E+00 0.000E+00 0.000E+00
BIGSUB   4        0    3.36293E+02 0.000E+00 0.000E+00 0.887E+00 0.338E+00 0.266E+03 0.000E+00 0.141E-02 0.000E+00 0.167E+00 0.445E-06 0.744E-05 0.118E-05 0.293E-04 0.473E-06 0.609E-08 0.165E+00 0.208E-02 0.100E-11 .00000E+00 0.000E+00 0.000E+00
BIGSUB   5        0    3.58984E+02 0.000E+00 0.000E+00 0.883E+00 0.282E+00 0.181E+03 0.000E+00 0.609E-06 0.000E+00 0.123E+00 0.500E-12 0.612E-09 0.612E-09 0.612E-09 0.612E-09 0.122E-08 0.123E+00 0.131E-02 0.100E-11 .00000E+00 0.000E+00 0.000E+00
BIGSUB   1        0    4.76460E+02 0.000E+00 0.000E+00 0.106E+01 0.326E+00 0.159E+03 0.000E+00 0.603E-06 0.000E+00 0.146E+00 0.646E-12 0.606E-09 0.606E-09 0.606E-09 0.606E-09 0.121E-08 0.146E+00 0.194E-02 0.100E-11 .00000E+00 0.000E+00 0.000E+00
BIGSUB   2        0    4.85095E+02 0.000E+00 0.000E+00 0.106E+01 0.354E+00 0.149E+03 0.000E+00 0.743E-06 0.000E+00 0.121E+00 0.725E-12 0.747E-09 0.747E-09 0.747E-09 0.747E-09 0.149E-08 0.121E+00 0.166E-02 0.100E-11 .00000E+00 0.000E+00 0.000E+00
BIGSUB   3        0    4.34257E+02 0.000E+00 0.000E+00 0.105E+01 0.416E+00 0.200E+03 0.000E+00 0.206E-02 0.000E+00 0.100E+00 0.729E-06 0.110E-04 0.175E-05 0.544E-04 0.699E-06 0.198E-07 0.980E-01 0.145E-02 0.100E-11 .00000E+00 0.000E+00 0.000E+00
BIGSUB   4        0    4.36293E+02 0.000E+00 0.000E+00 0.106E+01 0.400E+00 0.266E+03 0.000E+00 0.120E-02 0.000E+00 0.147E+00 0.377E-06 0.630E-05 0.100E-05 0.248E-04 0.400E-06 0.543E-08 0.146E+00 0.181E-02 0.100E-11 .00000E+00 0.000E+00 0.000E+00
BIGSUB   5        0    4.58984E+02 0.000E+00 0.000E+00 0.105E+01 0.338E+00 0.181E+03 0.000E+00 0.609E-06 0.000E+00 0.102E+00 0.500E-12 0.612E-09 0.612E-09 0.612E-09 0.612E-09 0.122E-08 0.102E+00 0.108E-02 0.100E-11 .00000E+00 0.000E+00 0.000E+00
BIGSUB   1        0    5.76460E+02 0.000E+00 0.000E+00 0.934E+00 0.286E+00 0.159E+03 0.000E+00 0.603E-06 0.000E+00 0.133E+00 0.646E-12 0.606E-09 0.606E-09 0.606E-09 0.606E-09 0.121E-08 0.133E+00 0.177E-02 0.100E-11 .00000E+00 0.000E+00 0.000E+00
BIGSUB   2        0    5.85095E+02 0.000E+00 0.000E+00 0.933E+00 0.311E+00 0.149E+03 0.000E+00 0.743E-06 0.000E+00 0.109E+00 0.725E-12 0.747E-09 0.747E-09 0.747E-09 0.747E-09 0.149E-08 0.109E+00 0.149E-02 0.100E-11 .00000E+00 0.000E+00 0.000E+00
BIGSUB   3        0    5.34257E+02 0.000E+00 0.000E+00 0.925E+00 0.362E+00 0.199E+03 0.000E+00 0.168E-02 0.000E+00 0.856E-01 0.594E-06 0.893E-05 0.142E-05 0.443E-04 0.570E-06 0.164E-07 0.839E-01 0.124E-02 0.100E-11 .00000E+00 0.000E+00 0.000E+00
BIGSUB   4        0    5.36293E+02 0.000E+00 0.000E+00 0.926E+00 0.346E+00 0.265E+03 0.000E+00 0.101E-02 0.000E+00 0.130E+00 0.319E-06 0.534E-05 0.848E-06 0.210E-04 0.339E-06 0.487E-08 0.129E+00 0.159E-02 0.100E-11 .00000E+00 0.000E+00 0.000E+00
BIGSUB   5        0    5.58984E+02 0.000E+00 0.000E+00 0.922E+00 0.298E+00 0.180E+03 0.000E+00 0.609E-06 0.000E+00 0.854E-01 0.500E-12 0.612E-09 0.612E-09 0.612E-09 0.612E-09 0.122E-08 0.854E-01 0.888E-03 0.100E-11 .00000E+00 0.000E+00 0.000E+00
BIGSUB   1        0    6.76460E+02 0.000E+00 0.000E+00 0.769E+00 0.234E+00 0.159E+03 0.000E+00 0.603E-06 0.000E+00 0.121E+00 0.646E-12 0.606E-09 0.606E-09 0.606E-09 0.606E-09 0.121E-08 0.121E+00 0.162E-02 0.100E-11 .00000E+00 0.000E+00 0.000E+00
BIGSUB   2        0    6.85095E+02 0.000E+00 0.000E+00 0.768E+00 0.255E+00 0.149E+03 0.000E+00 0.743E-06 0.000E+00 0.989E-01 0.725E-12 0.747E-09 0.747E-09 0.747E-09 0.747E-09 0.149E-08 0.989E-01 0.134E-02 0.100E-11 .00000E+00 0.000E+00 0.000E+00
BIGSUB   3        0    6.34257E+02 0.000E+00 0.000E+00 0.760E+00 0.294E+00 0.199E+03 0.000E+00 0.137E-02 0.000E+00 0.736E-01 0.484E-06 0.728E-05 0.116E-05 0.361E-04 0.465E-06 0.137E-07 0.722E-01 0.107E-02 0.100E-11 .00000E+00 0.000E+00 0.000E+00
BIGSUB   4        0    6.36293E+02 0.000E+00 0.000E+00 0.761E+00 0.281E+00 0.265E+03 0.000E+00 0.858E-03 0.000E+00 0.116E+00 0.270E-06 0.452E-05 0.719E-06 0.178E-04 0.287E-06 0.439E-08 0.115E+00 0.139E-02 0.100E-11 .00000E+00 0.000E+00 0.000E+00
BIGSUB   5        0    6.58984E+02 0.000E+00 0.000E+00 0.758E+00 0.245E+00 0.180E+03 0.000E+00 0.609E-06 0.000E+00 0.717E-01 0.500E-12 0.612E-09 0.612E-09 0.612E-09 0.612E-09 0.122E-08 0.717E-01 0.734E-03 0.100E-11 .00000E+00 0.000E+00 0.000E+00
BIGSUB   1        0    7.76460E+02 0.000E+00 0.000E+00 0.116E+01 0.352E+00 0.158E+03 0.000E+00 0.603E-06 0.000E+00 0.112E+00 0.646E-12 0.606E-09 0.606E-09 0.606E-09 0.606E-09 0.121E-08 0.112E+00 0.150E-02 0.100E-11 .00000E+00 0.000E+00 0.000E+00
BIGSUB   2        0    7.85095E+02 0.000E+00 0.000E+00 0.116E+01 0.386E+00 0.148E+03 0.000E+00 0.743E-06 0.000E+00 0.905E-01 0.725E-12 0.747E-09 0.747E-09 0.747E-09 0.747E-09 0.149E-08 0.904E-01 0.121E-02 0.100E-11 .00000E+00 0.000E+00 0.000E+00
BIGSUB   3        0    7.34257E+02 0.000E+00 0.000E+00 0.115E+01 0.445E+00 0.199E+03 0.000E+00 0.112E-02 0.000E+00 0.637E-01 0.395E-06 0.594E-05 0.947E-06 0.295E-04 0.379E-06 0.115E-07 0.625E-01 0.919E-03 0.100E-11 .00000E+00 0.000E+00 0.000E+00
BIGSUB   4        0    7.36293E+02 0.000E+00 0.000E+00 0.115E+01 0.429E+00 0.265E+03 0.000E+00 0.727E-03 0.000E+00 0.103E+00 0.229E-06 0.383E-05 0.609E-06 0.150E-04 0.244E-06 0.399E-08 0.102E+00 0.123E-02 0.100E-11 .00000E+00 0.000E+00 0.000E+00
BIGSUB   5        0    7.58984E+02 0.000E+00 0.000E+00 0.115E+01 0.377E+00 0.180E+03 0.000E+00 0.609E-06 0.000E+00 0.604E-01 0.500E-12 0.612E-09 0.612E-09 0.612E-09 0.612E-09 0.122E-08 0.604E-01 0.608E-03 0.100E-11 .00000E+00 0.000E+00 0.000E+00
BIGSUB   1        0    8.76460E+02 0.000E+00 0.000E+00 0.138E+01 0.419E+00 0.158E+03 0.000E+00 0.603E-06 0.000E+00 0.103E+00 0.646E-12 0.606E-09 0.606E-09 0.606E-09 0.606E-09 0.121E-08 0.103E+00 0.139E-02 0.100E-11 .00000E+00 0.000E+00 0.000E+00
BIGSUB   2        0    8.85095E+02 0.000E+00 0.000E+00 0.138E+01 0.460E+00 0.148E+03 0.000E+00 0.743E-06 0.000E+00 0.832E-01 0.725E-12 0.747E-09 0.747E-09 0.747E-09 0.747E-09 0.149E-08 0.832E-01 0.111E-02 0.100E-11 .00000E+00 0.000E+00 0.000E+00
BIGSUB   3        0    8.34257E+02 0.000E+00 0.000E+00 0.137E+01 0.530E+00 0.198E+03 0.000E+00 0.910E-03 0.000E+00 0.553E-01 0.322E-06 0.484E-05 0.772E-06 0.240E-04 0.309E-06 0.967E-08 0.544E-01 0.797E-03 0.100E-11 .00000E+00 0.000E+00 0.000E+00
BIGSUB   4        0    8.36293E+02 0.000E+00 0.000E+00 0.137E+01 0.514E+00 0.264E+03 0.000E+00 0.616E-03 0.000E+00 0.921E-01 0.194E-06 0.324E-05 0.516E-06 0.127E-04 0.206E-06 0.365E-08 0.915E-01 0.108E-02 0.100E-11 .00000E+00 0.000E+00 0.000E+00
BIGSUB   5        0    8.58984E+02 0.000E+00 0.000E+00 0.137E+01 0.458E+00 0.179E+03 0.000E+00 0.609E-06 0.000E+00 0.512E-01 0.500E-12 0.612E-09 0.612E-09 0.612E-09 0.612E-09 0.122E-08 0.512E-01 0.505E-03 0.100E-11 .00000E+00 0.000E+00 0.000E+00
BIGSUB   1        0    9.76460E+02 0.000E+00 0.000E+00 0.860E+00 0.259E+00 0.158E+03 0.000E+00 0.603E-06 0.000E+00 0.961E-01 0.646E-12 0.606E-09 0.606E-09 0.606E-09 0.606E-09 0.121E-08 0.961E-01 0.130E-02 0.100E-11 .00000E+00 0.000E+00 0.000E+00
BIGSUB   2        0    9.85095E+02 0.000E+00 0.000E+00 0.859E+00 0.284E+00 0.148E+03 0.000E+00 0.743E-06 0.000E+00 0.769E-01 0.725E-12 0.747E-09 0.747E-09 0.747E-09 0.747E-09 0.149E-08 0.769E-01 0.102E-02 0.100E-11 .00000E+00 0.000E+00 0.000E+00
BIGSUB   3        0    9.34257E+02 0.000E+00 0.000E+00 0.851E+00 0.325E+00 0.198E+03 0.000E+00 0.742E-03 0.000E+00 0.484E-01 0.262E-06 0.394E-05 0.630E-06 0.196E-04 0.252E-06 0.819E-08 0.477E-01 0.695E-03 0.100E-11 .00000E+00 0.000E+00 0.000E+00
BIGSUB   4        0    9.36293E+02 0.000E+00 0.000E+00 0.852E+00 0.315E+00 0.264E+03 0.000E+00 0.522E-03 0.000E+00 0.827E-01 0.164E-06 0.274E-05 0.437E-06 0.108E-04 0.175E-06 0.336E-08 0.822E-01 0.960E-03 0.100E-11 .00000E+00 0.000E+00 0.000E+00
BIGSUB   5        0    9.58984E+02 0.000E+00 0.000E+00 0.849E+00 0.284E+00 0.179E+03 0.000E+00 0.609E-06 0.000E+00 0.436E-01 0.500E-12 0.612E-09 0.612E-09 0.612E-09 0.612E-09 0.122E-08 0.436E-01 0.420E-03 0.100E-11 .00000E+00 0.000E+00 0.000E+00
BIGSUB   1        0   10.76460E+02 0.000E+00 0.000E+00 0.118E+01 0.356E+00 0.157E+03 0.000E+00 0.603E-06 0.000E+00 0.897E-01 0.646E-12 0.606E-09 0.606E-09 0.606E-09 0.606E-09 0.121E-08 0.897E-01 0.121E-02 0.100E-11 .00000E+00 0.000E+00 0.000E+00
BIGSUB   2        0   10.85095E+02 0.201E+00 0.000E+00 0.432E+00 0.180E+00 0.148E+03 0.000E+00 0.743E-06 0.000E+00 0.714E-01 0.725E-12 0.747E-09 0.747E-09 0.747E-09 0.747E-09 0.149E-08 0.714E-01 0.938E-03 0.100E-11 .00000E+00 0.000E+00 0.000E+00
BIGSUB   3        0   10.34257E+02 0.100E+00 0.000E+00 0.429E+00 0.201E+00 0.198E+03 0.000E+00 0.617E-04 0.000E+00 0.420E-01 0.214E-06 0.322E-05 0.513E-06 0.160E-04 0.206E-06 0.698E-08 0.420E-01 0.609E-03 0.100E-11 .00000E+00 0.000E+00 0.000E+00
BIGSUB   4        0   10.36293E+02 0.100E+00 0.000E+00 0.429E+00 0.207E+00 0.264E+03 0.000E+00 0.114E-03 0.000E+00 0.743E-01 0.139E-06 0.232E-05 0.370E-06 0.914E-05 0.148E-06 0.311E-08 0.741E-01 0.855E-03 0.100E-11 .00000E+00 0.000E+00 0.000E+00
BIGSUB   5        0   10.58984E+02 0.100E+00 0.000E+00 0.428E+00 0.191E+00 0.179E+03 0.000E+00 0.609E-06 0.000E+00 0.373E-01 0.500E-12 0.612E-09 0.612E-09 0.612E-09 0.612E-09 0.122E-08 0.373E-01 0.351E-03 0.100E-11 .00000E+00 0.000E+00 0.000E+00
BIGSUB   1        0   11.76460E+02 0.000E+00 0.000E+00 0.141E+01 0.424E+00 0.157E+03 0.000E+00 0.603E-06 0.000E+00 0.841E-01 0.646E-12 0.606E-09 0.606E-09 0.606E-09 0.606E-09 0.121E-08 0.841E-01 0.114E-02 0.100E-11 .00000E+00 0.000E+00 0.000E+00
BIGSUB   2        0   11.85095E+02 0.000E+00 0.000E+00 0.141E+01 0.469E+00 0.147E+03 0.000E+00 0.743E-06 0.000E+00 0.666E-01 0.725E-12 0.747E-09 0.747E-09 0.747E-09 0.747E-09 0.149E-08 0.666E-01 0.869E-03 0.100E-11 .00000E+00 0.000E+00 0.000E+00
BIGSUB   3        0   11.34257E+02 0.000E+00 0.000E+00 0.140E+01 0.537E+00 0.197E+03 0.000E+00 0.493E-03 0.000E+00 0.377E-01 0.174E-06 0.262E-05 0.419E-06 0.130E-04 0.168E-06 0.600E-08 0.372E-01 0.537E-03 0.100E-11 .00000E+00 0.000E+00 0.000E+00
BIGSUB   4        0   11.36293E+02 0.000E+00 0.000E+00 0.140E+01 0.522E+00 0.263E+03 0.000E+00 0.374E-03 0.000E+00 0.675E-01 0.118E-06 0.197E-05 0.314E-06 0.774E-05 0.126E-06 0.291E-08 0.671E-01 0.763E-03 0.100E-11 .00000E+00 0.000E+00 0.000E+00
BIGSUB   5        0   11.58984E+02 0.000E+00 0.000E+00 0.140E+01 0.476E+00 0.178E+03 0.000E+00 0.609E-06 0.000E+00 0.321E-01 0.500E-12 0.612E-09 0.612E-09 0.612E-09 0.612E-09 0.122E-08 0.321E-01 0.295E-03 0.100E-11 .00000E+00 0.000E+00 0.000E+00
BIGSUB   1        0   12.76460E+02 0.000E+00 0.000E+00 0.106E+01 0.319E+00 0.157E+03 0.000E+00 0.603E-06 0.000E+00 0.791E-01 0.646E-12 0.606E-09 0.606E-09 0.606E-09 0.606E-09 0.121E-08 0.791E-01 0.107E-02 0.100E-11 .00000E+00 0.000E+00 0.000E+00
BIGSUB   2        0   12.85095E+02 0.000E+00 0.000E+00 0.106E+01 0.352E+00 0.147E+03 0.000E+00 0.743E-06 0.000E+00 0.624E-01 0.725E-12 0.747E-09 0.747E-09 0.747E-09 0.747E-09 0.149E-08 0.624E-01 0.809E-03 0.100E-11 .00000E+00 0.000E+00 0.000E+00
BIGSUB   3        0   12.34257E+02 0.000E+00 0.000E+00 0.105E+01 0.402E+00 0.197E+03 0.000E+00 0.402E-03 0.000E+00 0.335E-01 0.142E-06 0.214E-05 0.341E-06 0.106E-04 0.137E-06 0.520E-08 0.331E-01 0.475E-03 0.100E-11 .00000E+00 0.000E+00 0.000E+00
BIGSUB   4        0   12.36293E+02 0.000E+00 0.000E+00 0.106E+01 0.390E+00 0.263E+03 0.000E+00 0.317E-03 0.000E+00 0.613E-01 0.996E-07 0.167E-05 0.266E-06 0.656E-05 0.107E-06 0.273E-08 0.610E-01 0.685E-03 0.100E-11 .00000E+00 0.000E+00 0.000E+00
BIGSUB   5        0   12.58984E+02 0.000E+00 0.000E+00 0.105E+01 0.360E+00 0.178E+03 0.000E+00 0.609E-06 0.000E+00 0.278E-01 0.500E-12 0.612E-09 0.612E-09 0.612E-09 0.612E-09 0.122E-08 0.278E-01 0.248E-03 0.100E-11 .00000E+00 0.000E+00 0.000E+00
BIGSUB   1        0   13.76460E+02 0.000E+00 0.000E+00 0.122E+01 0.364E+00 0.156E+03 0.000E+00 0.603E-06 0.000E+00 0.745E-01 0.646E-12 0.606E-09 0.606E-09 0.606E-09 0.606E-09 0.121E-08 0.745E-01 0.101E-02 0.100E-11 .00000E+00 0.000E+00 0.000E+00
BIGSUB   2        0   13.85095E+02 0.000E+00 0.000E+00 0.122E+01 0.399E+00 0.147E+03 0.000E+00 0.743E-06 0.000E+00 0.586E-01 0.725E-12 0.747E-09 0.747E-09 0.747E-09 0.747E-09 0.149E-08 0.586E-01 0.757E-03 0.100E-11 .00000E+00 0.000E+00 0.000E+00
BIGSUB   3        0   13.34257E+02 0.000E+00 0.000E+00 0.121E+01 0.453E+00 0.196E+03 0.000E+00 0.328E-03 0.000E+00 0.300E-01 0.116E-06 0.174E-05 0.278E-06 0.865E-05 0.112E-06 0.454E-08 0.297E-01 0.423E-03 0.100E-11 .00000E+00 0.000E+00 0.000E+00
BIGSUB   4        0   13.36293E+02 0.000E+00 0.000E+00 0.121E+01 0.436E+00 0.262E+03 0.000E+00 0.269E-03 0.000E+00 0.559E-01 0.844E-07 0.141E-05 0.225E-06 0.555E-05 0.904E-07 0.258E-08 0.556E-01 0.617E-03 0.100E-11 .00000E+00 0.000E+00 0.000E+00
BIGSUB   5        0   13.58984E+02 0.000E+00 0.000E+00 0.120E+01 0.406E+00 0.178E+03 0.000E+00 0.609E-06 0.000E+00 0.243E-01 0.500E-12 0.612E-09 0.612E-09 0.612E-09 0.612E-09 0.122E-08 0.243E-01 0.210E-03 0.100E-11 .00000E+00 0.000E+00 0.000E+00
BIGSUB   1        0   14.76460E+02 0.000E+00 0.000E+00 0.877E+00 0.261E+00 0.156E+03 0.000E+00 0.603E-06 0.000E+00 0.704E-01 0.646E-12 0.606E-09 0.606E-09 0.606E-09 0.606E-09 0.121E-08 0.704E-01 0.957E-03 0.100E-11 .00000E+00 0.000E+00 0.000E+00
BIGSUB   2        0   14.85095E+02 0.000E+00 0.000E+00 0.877E+00 0.286E+00 0.146E+03 0.000E+00 0.743E-06 0.000E+00 0.552E-01 0.725E-12 0.747E-09 0.747E-09 0.747E-09 0.747E-09 0.149E-08 0.552E-01 0.710E-03 0.100E-11 .00000E+00 0.000E+00 0.000E+00
BIGSUB   3        0   14.34257E+02 0.000E+00 0.000E+00 0.868E+00 0.323E+00 0.196E+03 0.000E+00 0.268E-03 0.000E+00 0.270E-01 0.944E-07 0.142E-05 0.227E-06 0.705E-05 0.912E-07 0.401E-08 0.267E-01 0.379E-03 0.100E-11 .00000E+00 0.000E+00 0.000E+00
BIGSUB   4        0   14.36293E+02 0.000E+00 0.000E+00 0.870E+00 0.310E+00 0.262E+03 0.000E+00 0.228E-03 0.000E+00 0.512E-01 0.715E-07 0.120E-05 0.191E-06 0.470E-05 0.767E-07 0.246E-08 0.509E-01 0.557E-03 0.100E-11 .00000E+00 0.000E+00 0.000E+00
BIGSUB   5        0   14.58984E+02 0.000E+00 0.000E+00 0.865E+00 0.291E+00 0.177E+03 0.000E+00 0.609E-06 0.000E+00 0.213E-01 0.500E-12 0.612E-09 0.612E-09 0.612E-09 0.612E-09 0.122E-08 0.213E-01 0.179E-03 0.100E-11 .00000E+00 0.000E+00 0.000E+00
BIGSUB   1        0   15.76460E+02 0.000E+00 0.000E+00 0.111E+01 0.332E+00 0.156E+03 0.000E+00 0.603E-06 0.000E+00 0.667E-01 0.646E-12 0.606E-09 0.606E-09 0.606E-09 0.606E-09 0.121E-08 0.667E-01 0.908E-03 0.100E-11 .00000E+00 0.000E+00 0.000E+00
BIGSUB   2        0   15.85095E+02 0.000E+00 0.000E+00 0.111E+01 0.363E+00 0.146E+03 0.000E+00 0.743E-06 0.000E+00 0.521E-01 0.725E-12 0.747E-09 0.747E-09 0.747E-09 0.747E-09 0.149E-08 0.521E-01 0.668E-03 0.100E-11 .00000E+00 0.000E+00 0.000E+00
BIGSUB   3        0   15.34257E+02 0.000E+00 0.000E+00 0.110E+01 0.410E+00 0.196E+03 0.000E+00 0.218E-03 0.000E+00 0.244E-01 0.770E-07 0.116E-05 0.185E-06 0.575E-05 0.745E-07 0.357E-08 0.242E-01 0.341E-03 0.100E-11 .00000E+00 0.000E+00 0.000E+00
BIGSUB   4        0   15.36293E+02 0.000E+00 0.000E+00 0.111E+01 0.393E+00 0.262E+03 0.000E+00 0.193E-03 0.000E+00 0.470E-01 0.605E-07 0.101E-05 0.162E-06 0.398E-05 0.651E-07 0.235E-08 0.468E-01 0.506E-03 0.100E-11 .00000E+00 0.000E+00 0.000E+00
BIGSUB   5        0   15.58984E+02 0.000E+00 0.000E+00 0.110E+01 0.372E+00 0.177E+03 0.000E+00 0.609E-06 0.000E+00 0.188E-01 0.500E-12 0.612E-09 0.612E-09 0.612E-09 0.612E-09 0.122E-08 0.188E-01 0.153E-03 0.100E-11 .00000E+00 0.000E+00 0.000E+00
BIGSUB   1        0   16.76460E+02 0.000E+00 0.000E+00 0.106E+01 0.317E+00 0.155E+03 0.000E+00 0.603E-06 0.000E+00 0.633E-01 0.646E-12 0.606E-09 0.606E-09 0.606E-09 0.606E-09 0.121E-08 0.633E-01 0.862E-03 0.100E-11 .00000E+00 0.000E+00 0.000E+00
BIGSUB   2        0   16.85095E+02 0.000E+00 0.000E+00 0.106E+01 0.347E+00 0.146E+03 0.000E+00 0.743E-06 0.000E+00 0.493E-01 0.725E-12 0.747E-09 0.747E-09 0.747E-09 0.747E-09 0.149E-08 0.493E-01 0.630E-03 0.100E-11 .00000E+00 0.000E+00 0.000E+00
BIGSUB   3        0   16.34257E+02 0.000E+00 0.000E+00 0.105E+01 0.392E+00 0.195E+03 0.000E+00 0.178E-03 0.000E+00 0.222E-01 0.628E-07 0.944E-06 0.151E-06 0.468E-05 0.609E-07 0.322E-08 0.221E-01 0.309E-03 0.100E-11 .00000E+00 0.000E+00 0.000E+00
BIGSUB   4        0   16.36293E+02 0.000E+00 0.000E+00 0.105E+01 0.376E+00 0.261E+03 0.000E+00 0.164E-03 0.000E+00 0.433E-01 0.512E-07 0.858E-06 0.137E-06 0.337E-05 0.553E-07 0.226E-08 0.432E-01 0.461E-03 0.100E-11 .00000E+00 0.000E+00 0.000E+00
BIGSUB   5        0   16.58984E+02 0.000E+00 0.000E+00 0.105E+01 0.358E+00 0.177E+03 0.000E+00 0.609E-06 0.000E+00 0.167E-01 0.500E-12 0.612E-09 0.612E-09 0.612E-09 0.612E-09 0.122E-08 0.167E-01 0.131E-03 0.100E-11 .00000E+00 0.000E+00 0.000E+00
BIGSUB   1        0   17.76460E+02 0.000E+00 0.000E+00 0.776E+00 0.231E+00 0.155E+03 0.000E+00 0.603E-06 0.000E+00 0.602E-01 0.646E-12 0.606E-09 0.606E-09 0.606E-09 0.606E-09 0.121E-08 0.602E-01 0.820E-03 0.100E-11 .00000E+00 0.000E+00 0.000E+00
BIGSUB   2        0   17.85095E+02 0.000E+00 0.000E+00 0.775E+00 0.252E+00 0.145E+03 0.000E+00 0.743E-06 0.000E+00 0.468E-01 0.725E-12 0.747E-09 0.747E-09 0.747E-09 0.747E-09 0.149E-08 0.468E-01 0.596E-03 0.100E-11 .00000E+00 0.000E+00 0.000E+00
BIGSUB   3        0   17.34257E+02 0.000E+00 0.000E+00 0.767E+00 0.284E+00 0.195E+03 0.000E+00 0.145E-03 0.000E+00 0.203E-01 0.512E-07 0.770E-06 0.123E-06 0.382E-05 0.498E-07 0.293E-08 0.202E-01 0.281E-03 0.100E-11 .00000E+00 0.000E+00 0.000E+00
BIGSUB   4        0   17.36293E+02 0.000E+00 0.000E+00 0.769E+00 0.272E+00 0.261E+03 0.000E+00 0.139E-03 0.000E+00 0.401E-01 0.434E-07 0.727E-06 0.116E-06 0.286E-05 0.469E-07 0.218E-08 0.399E-01 0.422E-03 0.100E-11 .00000E+00 0.000E+00 0.000E+00
BIGSUB   5        0   17.58984E+02 0.000E+00 0.000E+00 0.765E+00 0.261E+00 0.176E+03 0.000E+00 0.609E-06 0.000E+00 0.149E-01 0.500E-12 0.612E-09 0.612E-09 0.612E-09 0.612E-09 0.122E-08 0.149E-01 0.113E-03 0.100E-11 .00000E+00 0.000E+00 0.000E+00
BIGSUB   1        0   18.76460E+02 0.000E+00 0.000E+00 0.843E+00 0.251E+00 0.155E+03 0.000E+00 0.603E-06 0.000E+00 0.573E-01 0.646E-12 0.606E-09 0.606E-09 0.606E-09 0.606E-09 0.121E-08 0.573E-01 0.781E-03 0.100E-11 .00000E+00 0.000E+00 0.000E+00
BIGSUB   2        0   18.85095E+02 0.000E+00 0.000E+00 0.843E+00 0.274E+00 0.145E+03 0.000E+00 0.743E-06 0.000E+00 0.445E-01 0.725E-12 0.747E-09 0.747E-09 0.747E-09 0.747E-09 0.149E-08 0.445E-01 0.565E-03 0.100E-11 .00000E+00 0.000E+00 0.000E+00
BIGSUB   3        0   18.34257E+02 0.000E+00 0.000E+00 0.834E+00 0.309E+00 0.195E+03 0.000E+00 0.119E-03 0.000E+00 0.187E-01 0.417E-07 0.628E-06 0.101E-06 0.311E-05 0.408E-07 0.270E-08 0.186E-01 0.256E-03 0.100E-11 .00000E+00 0.000E+00 0.000E+00
BIGSUB   4        0   18.36293E+02 0.000E+00 0.000E+00 0.836E+00 0.295E+00 0.261E+03 0.000E+00 0.118E-03 0.000E+00 0.372E-01 0.368E-07 0.616E-06 0.986E-07 0.242E-05 0.399E-07 0.212E-08 0.371E-01 0.387E-03 0.100E-11 .00000E+00 0.000E+00 0.000E+00
BIGSUB   5        0   18.58984E+02 0.000E+00 0.000E+00 0.831E+00 0.285E+00 0.176E+03 0.000E+00 0.609E-06 0.000E+00 0.135E-01 0.500E-12 0.612E-09 0.612E-09 0.612E-09 0.612E-09 0.122E-08 0.135E-01 0.986E-04 0.100E-11 .00000E+00 0.000E+00 0.000E+00
BIGSUB   1        0   19.76460E+02 0.000E+00 0.000E+00 0.134E+01 0.400E+00 0.155E+03 0.000E+00 0.603E-06 0.000E+00 0.546E-01 0.646E-12 0.606E-09 0.606E-09 0.606E-09 0.606E-09 0.121E-08 0.546E-01 0.745E-03 0.100E-11 .00000E+00 0.000E+00 0.000E+00
BIGSUB   2        0   19.85095E+02 0.000E+00 0.000E+00 0.134E+01 0.438E+00 0.145E+03 0.000E+00 0.743E-06 0.000E+00 0.423E-01 0.725E-12 0.747E-09 0.747E-09 0.747E-09 0.747E-09 0.149E-08 0.423E-01 0.537E-03 0.100E-11 .00000E+00 0.000E+00 0.000E+00
BIGSUB   3        0   19.34257E+02 0.000E+00 0.000E+00 0.133E+01 0.496E+00 0.194E+03 0.000E+00 0.969E-04 0.000E+00 0.173E-01 0.340E-07 0.512E-06 0.823E-07 0.254E-05 0.334E-07 0.250E-08 0.172E-01 0.235E-03 0.100E-11 .00000E+00 0.000E+00 0.000E+00
BIGSUB   4        0   19.36293E+02 0.000E+00 0.000E+00 0.133E+01 0.474E+00 0.260E+03 0.000E+00 0.997E-04 0.000E+00 0.346E-01 0.311E-07 0.522E-06 0.836E-07 0.205E-05 0.339E-07 0.206E-08 0.345E-01 0.357E-03 0.100E-11 .00000E+00 0.000E+00 0.000E+00
BIGSUB   5        0   19.58984E+02 0.000E+00 0.000E+00 0.133E+01 0.461E+00 0.176E+03 0.000E+00 0.609E-06 0.000E+00 0.122E-01 0.500E-12 0.612E-09 0.612E-09 0.612E-09 0.612E-09 0.122E-08 0.122E-01 0.863E-04 0.100E-11 .00000E+00 0.000E+00 0.000E+00
BIGSUB   1        0   20.76460E+02 0.000E+00 0.000E+00 0.156E+01 0.480E+00 0.154E+03 0.000E+00 0.603E-06 0.000E+00 0.520E-01 0.646E-12 0.606E-09 0.606E-09 0.606E-09 0.606E-09 0.121E-08 0.520E-01 0.711E-03 0.100E-11 .00000E+00 0.000E+00 0.000E+00
BIGSUB   2        0   20.85095E+02 0.000E+00 0.000E+00 0.156E+01 0.528E+00 0.144E+03 0.000E+00 0.743E-06 0.000E+00 0.403E-01 0.725E-12 0.747E-09 0.747E-09 0.747E-09 0.747E-09 0.149E-08 0.403E-01 0.510E-03 0.100E-11 .00000E+00 0.000E+00 0.000E+00
BIGSUB   3        0   20.34257E+02 0.000E+00 0.000E+00 0.155E+01 0.601E+00 0.194E+03 0.000E+00 0.791E-04 0.000E+00 0.160E-01 0.277E-07 0.417E-06 0.672E-07 0.207E-05 0.274E-07 0.235E-08 0.159E-01 0.216E-03 0.100E-11 .00000E+00 0.000E+00 0.000E+00
BIGSUB   4        0   20.36293E+02 0.000E+00 0.000E+00 0.155E+01 0.582E+00 0.260E+03 0.000E+00 0.846E-04 0.000E+00 0.323E-01 0.264E-07 0.442E-06 0.709E-07 0.174E-05 0.288E-07 0.202E-08 0.322E-01 0.330E-03 0.100E-11 .00000E+00 0.000E+00 0.000E+00
BIGSUB   5        0   20.58984E+02 0.000E+00 0.000E+00 0.154E+01 0.571E+00 0.175E+03 0.000E+00 0.609E-06 0.000E+00 0.111E-01 0.500E-12 0.612E-09 0.612E-09 0.612E-09 0.612E-09 0.122E-08 0.111E-01 0.760E-04 0.100E-11 .00000E+00 0.000E+00 0.000E+00
BIGSUB   1        0   21.76460E+02 0.000E+00 0.000E+00 0.106E+01 0.316E+00 0.154E+03 0.000E+00 0.603E-06 0.000E+00 0.497E-01 0.646E-12 0.606E-09 0.606E-09 0.606E-09 0.606E-09 0.121E-08 0.497E-01 0.679E-03 0.100E-11 .00000E+00 0.000E+00 0.000E+00
BIGSUB   2        0   21.85095E+02 0.000E+00 0.000E+00 0.106E+01 0.347E+00 0.144E+03 0.000E+00 0.743E-06 0.000E+00 0.384E-01 0.725E-12 0.747E-09 0.747E-09 0.747E-09 0.747E-09 0.149E-08 0.384E-01 0.486E-03 0.100E-11 .00000E+00 0.000E+00 0.000E+00
BIGSUB   3        0   21.34257E+02 0.000E+00 0.000E+00 0.105E+01 0.394E+00 0.193E+03 0.000E+00 0.646E-04 0.000E+00 0.149E-01 0.226E-07 0.340E-06 0.550E-07 0.169E-05 0.225E-07 0.222E-08 0.148E-01 0.200E-03 0.100E-11 .00000E+00 0.000E+00 0.000E+00
BIGSUB   4        0   21.36293E+02 0.000E+00 0.000E+00 0.105E+01 0.377E+00 0.259E+03 0.000E+00 0.718E-04 0.000E+00 0.303E-01 0.223E-07 0.374E-06 0.602E-07 0.147E-05 0.246E-07 0.198E-08 0.302E-01 0.307E-03 0.100E-11 .00000E+00 0.000E+00 0.000E+00
BIGSUB   5        0   21.58984E+02 0.000E+00 0.000E+00 0.105E+01 0.373E+00 0.175E+03 0.000E+00 0.609E-06 0.000E+00 0.102E-01 0.500E-12 0.612E-09 0.612E-09 0.612E-09 0.612E-09 0.122E-08 0.102E-01 0.673E-04 0.100E-11 .00000E+00 0.000E+00 0.000E+00
BIGSUB   1        0   22.76460E+02 0.000E+00 0.000E+00 0.978E+00 0.290E+00 0.153E+03 0.000E+00 0.603E-06 0.000E+00 0.475E-01 0.646E-12 0.606E-09 0.606E-09 0.606E-09 0.606E-09 0.121E-08 0.475E-01 0.649E-03 0.100E-11 .00000E+00 0.000E+00 0.000E+00
BIGSUB   2        0   22.85095E+02 0.000E+00 0.000E+00 0.977E+00 0.318E+00 0.143E+03 0.000E+00 0.743E-06 0.000E+00 0.367E-01 0.725E-12 0.747E-09 0.747E-09 0.747E-09 0.747E-09 0.149E-08 0.367E-01 0.463E-03 0.100E-11 .00000E+00 0.000E+00 0.000E+00
BIGSUB   3        0   22.34257E+02 0.000E+00 0.000E+00 0.968E+00 0.358E+00 0.193E+03 0.000E+00 0.528E-04 0.000E+00 0.139E-01 0.184E-07 0.278E-06 0.450E-07 0.138E-05 0.185E-07 0.212E-08 0.138E-01 0.185E-03 0.100E-11 .00000E+00 0.000E+00 0.000E+00
BIGSUB   4        0   22.36293E+02 0.000E+00 0.000E+00 0.970E+00 0.339E+00 0.259E+03 0.000E+00 0.609E-04 0.000E+00 0.284E-01 0.189E-07 0.317E-06 0.511E-07 0.124E-05 0.209E-07 0.194E-08 0.283E-01 0.286E-03 0.100E-11 .00000E+00 0.000E+00 0.000E+00
BIGSUB   5        0   22.58984E+02 0.000E+00 0.000E+00 0.966E+00 0.339E+00 0.174E+03 0.000E+00 0.609E-06 0.000E+00 0.935E-02 0.500E-12 0.612E-09 0.612E-09 0.612E-09 0.612E-09 0.122E-08 0.935E-02 0.600E-04 0.100E-11 .00000E+00 0.000E+00 0.000E+00
BIGSUB   1        0   23.76460E+02 0.000E+00 0.000E+00 0.151E+01 0.453E+00 0.153E+03 0.000E+00 0.603E-06 0.000E+00 0.454E-01 0.646E-12 0.606E-09 0.606E-09 0.606E-09 0.606E-09 0.121E-08 0.454E-01 0.620E-03 0.100E-11 .00000E+00 0.000E+00 0.000E+00
BIGSUB   2        0   23.85095E+02 0.000E+00 0.000E+00 0.151E+01 0.495E+00 0.143E+03 0.000E+00 0.743E-06 0.000E+00 0.350E-01 0.725E-12 0.747E-09 0.747E-09 0.747E-09 0.747E-09 0.149E-08 0.350E-01 0.442E-03 0.100E-11 .00000E+00 0.000E+00 0.000E+00
BIGSUB   3        0   23.34257E+02 0.000E+00 0.000E+00 0.150E+01 0.559E+00 0.192E+03 0.000E+00 0.432E-04 0.000E+00 0.130E-01 0.150E-07 0.226E-06 0.368E-07 0.112E-05 0.152E-07 0.203E-08 0.130E-01 0.173E-03 0.100E-11 .00000E+00 0.000E+00 0.000E+00
BIGSUB   4        0   23.36293E+02 0.000E+00 0.000E+00 0.150E+01 0.530E+00 0.258E+03 0.000E+00 0.517E-04 0.000E+00 0.267E-01 0.160E-07 0.269E-06 0.434E-07 0.105E-05 0.179E-07 0.192E-08 0.267E-01 0.267E-03 0.100E-11 .00000E+00 0.000E+00 0.000E+00
BIGSUB   5        0   23.58984E+02 0.000E+00 0.000E+00 0.149E+01 0.538E+00 0.174E+03 0.000E+00 0.609E-06 0.000E+00 0.865E-02 0.500E-12 0.612E-09 0.612E-09 0.612E-09 0.612E-09 0.122E-08 0.865E-02 0.539E-04 0.100E-11 .00000E+00 0.000E+00 0.000E+00
BIGSUB   1        0   24.76460E+02 0.261E+01 0.000E+00 0.985E+00 0.417E+00 0.155E+03 0.000E+00 0.105E-02 0.000E+00 0.520E-01 0.108E-04 0.994E-04 0.195E-04 0.957E-03 0.689E-05 0.160E-06 0.510E-01 0.110E-02 0.100E-11 .76335E-03 0.421E-05 0.333E-03
BIGSUB   2        0   24.85095E+02 0.000E+00 0.000E+00 0.118E+01 0.378E+00 0.143E+03 0.000E+00 0.743E-06 0.000E+00 0.335E-01 0.725E-12 0.747E-09 0.747E-09 0.747E-09 0.747E-09 0.149E-08 0.335E-01 0.422E-03 0.100E-11 .00000E+00 0.000E+00 0.000E+00
BIGSUB   3        0   24.34257E+02 0.000E+00 0.000E+00 0.117E+01 0.421E+00 0.192E+03 0.000E+00 0.354E-04 0.000E+00 0.122E-01 0.122E-07 0.185E-06 0.302E-07 0.914E-06 0.125E-07 0.196E-08 0.122E-01 0.161E-03 0.100E-11 .00000E+00 0.000E+00 0.000E+00
BIGSUB   4        0   24.36293E+02 0.000E+00 0.000E+00 0.117E+01 0.395E+00 0.258E+03 0.000E+00 0.439E-04 0.000E+00 0.252E-01 0.136E-07 0.228E-06 0.369E-07 0.893E-06 0.153E-07 0.189E-08 0.251E-01 0.250E-03 0.100E-11 .00000E+00 0.000E+00 0.000E+00